Circuit: * C:\Users\shaun\Documents\GitHub\audio_jack_amp\analogue_amp.asc

Direct Newton iteration failed to find .op point.  (Use ".option noopiter" to skip.)
Starting Gmin stepping
Gmin = 10
Gmin = 1.07374
Gmin = 0.115292
Gmin = 0.0123794
Gmin = 0.00132923
Gmin = 0.000142725
Gmin = 1.5325e-005
Gmin = 1.6455e-006
Gmin = 1.76685e-007
Gmin = 1.89714e-008
Gmin = 2.03704e-009
Gmin = 2.18725e-010
Gmin = 2.34854e-011
Gmin = 2.52173e-012
Gmin = 2.70769e-013
Gmin = 0
Gmin stepping succeeded in finding the operating point.

Ignoring empty pin current: Ix(u1:1)
Ignoring empty pin current: Ix(u1:2)
Ignoring empty pin current: Ix(u1:1)
Ignoring empty pin current: Ix(u1:2)
Changing Tseed to 1e-008
Changing Tseed to 1e-010
Changing Tseed to 1e-007
Heightened Def Con from 1.125e-007 to 1.125e-007
Heightened Def Con from 1.125e-007 +to 1.12641e-007
Heightened Def Con from 1.12641e-007 to 1.12656e-007
Heightened Def Con from 1.12656e-007 ++++++++to 1.12781e-007
Heightened Def Con from 1.12781e-007 +++++to 1.12797e-007
Heightened Def Con from 1.12797e-007 ++++++to 1.12922e-007
Heightened Def Con from 1.12922e-007 +++++++to 1.12924e-007
Heightened Def Con from 1.12924e-007 to 1.12924e-007
Heightened Def Con from 1.12924e-007 +to 1.13049e-007
Heightened Def Con from 1.13049e-007 ++++++++++++++to 1.14049e-007
Heightened Def Con from 1.14049e-007 ++++++++++++++++to 1.14049e-007
Heightened Def Con from 1.14049e-007 +++++to 1.14065e-007
Heightened Def Con from 1.14065e-007 ++++++++to 1.14205e-007
Heightened Def Con from 1.14455e-007 ++to 1.1458e-007
Heightened Def Con from 1.14612e-007 to 1.14627e-007
Heightened Def Con from 1.14627e-007 +++to 1.15627e-007
Heightened Def Con from 1.15627e-007 ++++++++to 1.15752e-007
Heightened Def Con from 1.15752e-007 to 1.15752e-007
Heightened Def Con from 1.15752e-007 +++++++to 1.15878e-007
Heightened Def Con from 1.15878e-007 +++++++++++++++to 1.15879e-007
Heightened Def Con from 1.15879e-007 +++to 1.16005e-007
Heightened Def Con from 1.16005e-007 +++to 1.1613e-007
Heightened Def Con from 1.1613e-007 +++++++++++++++++++to 1.1613e-007
Heightened Def Con from 1.1613e-007 ++++++to 1.17132e-007
Heightened Def Con from 1.17132e-007 to 1.18132e-007
Heightened Def Con from 1.18132e-007 +++++to 1.19132e-007
Heightened Def Con from 1.19132e-007 ++++++++to 1.19257e-007
Heightened Def Con from 1.19257e-007 to 1.19257e-007
Heightened Def Con from 1.19257e-007 ++to 1.20257e-007
Heightened Def Con from 1.20288e-007 to 1.20288e-007
Heightened Def Con from 1.20288e-007 +++++++to 1.2029e-007
Heightened Def Con from 1.20294e-007 to 1.20309e-007
Heightened Def Con from 1.20309e-007 to 1.20309e-007
Heightened Def Con from 1.20309e-007 +++++++++to 1.20325e-007
Heightened Def Con from 1.20325e-007 to 1.20341e-007
Heightened Def Con from 1.2038e-007 ++++to 1.2138e-007
Heightened Def Con from 1.2138e-007 ++to 1.21395e-007
Heightened Def Con from 1.21395e-007 to 1.21411e-007
Heightened Def Con from 1.21411e-007 +to 1.22536e-007
Heightened Def Con from 1.22709e-007 to 1.22709e-007
Heightened Def Con from 1.22709e-007 +to 1.22726e-007
Heightened Def Con from 1.22726e-007 to 1.22726e-007
Heightened Def Con from 1.22726e-007 +to 1.22742e-007
Heightened Def Con from 1.22742e-007 ++++++++to 1.22744e-007
Heightened Def Con from 1.22744e-007 ++++to 1.23744e-007
Heightened Def Con from 1.23744e-007 to 1.23869e-007
Heightened Def Con from 1.23869e-007 to 1.24869e-007
Heightened Def Con from 1.25119e-007 to 1.26119e-007
Heightened Def Con from 1.26369e-007 to 1.27369e-007
Heightened Def Con from 1.27369e-007 to 1.27371e-007
Heightened Def Con from 1.27375e-007 to 1.27377e-007
Heightened Def Con from 1.27377e-007 ++to 1.28502e-007
Heightened Def Con from 1.28814e-007 to 1.29814e-007
Heightened Def Con from 1.30064e-007 +++++to 1.31064e-007
Heightened Def Con from 1.31064e-007 +++++++to 1.3108e-007
Heightened Def Con from 1.3108e-007 to 1.3108e-007
Heightened Def Con from 1.3108e-007 to 1.3108e-007
Heightened Def Con from 1.3108e-007 +++to 1.3208e-007
Heightened Def Con from 1.3208e-007 to 1.3308e-007
Heightened Def Con from 1.33331e-007 to 1.35331e-007
Heightened Def Con from 1.35331e-007 ++to 1.36332e-007
Heightened Def Con from 1.36332e-007 to 1.36332e-007
Heightened Def Con from 1.36332e-007 +++++to 1.36457e-007
Heightened Def Con from 1.36457e-007 +to 1.36457e-007
Heightened Def Con from 1.36457e-007 +++++++++to 1.36459e-007
Heightened Def Con from 1.36459e-007 ++to 1.36475e-007
Heightened Def Con from 1.36475e-007 to 1.36491e-007
Heightened Def Con from 1.36491e-007 ++to 1.37491e-007
Heightened Def Con from 1.39491e-007 +++++to 1.39506e-007
Heightened Def Con from 1.39506e-007 +++++++++to 1.40506e-007
Heightened Def Con from 1.40506e-007 to 1.40506e-007
Heightened Def Con from 1.40506e-007 to 1.40508e-007
Heightened Def Con from 1.40512e-007 to 1.41513e-007
Heightened Def Con from 1.41513e-007 ++to 1.42513e-007
Heightened Def Con from 1.42513e-007 +++++to 1.42514e-007
Heightened Def Con from 1.42514e-007 +to 1.42518e-007
Heightened Def Con from 1.4253e-007 to 1.43655e-007
Heightened Def Con from 1.43659e-007 to 1.43661e-007
Heightened Def Con from 1.43661e-007 ++to 1.44661e-007
Heightened Def Con from 1.46669e-007 +++++to 1.46684e-007
Heightened Def Con from 1.46684e-007 to 1.46688e-007
Heightened Def Con from 1.46688e-007 +++to 1.46813e-007
Heightened Def Con from 1.46814e-007 ++to 1.4683e-007
Heightened Def Con from 1.4683e-007 ++to 1.47845e-007
Heightened Def Con from 1.47845e-007 to 1.48846e-007
Heightened Def Con from 1.48846e-007 to 1.50846e-007
Heightened Def Con from 1.50846e-007 to 1.50971e-007
Heightened Def Con from 1.50971e-007 to 1.51096e-007
Heightened Def Con from 1.51097e-007 +to 1.53097e-007
Heightened Def Con from 1.53347e-007 to 1.53347e-007
Heightened Def Con from 1.53347e-007 to 1.53347e-007
Heightened Def Con from 1.53347e-007 to 1.54349e-007
Heightened Def Con from 1.54353e-007 to 1.54353e-007
Heightened Def Con from 1.54353e-007 to 1.54353e-007
Heightened Def Con from 1.54353e-007 to 1.54357e-007
Heightened Def Con from 1.54357e-007 ++to 1.54373e-007
Heightened Def Con from 1.54377e-007 to 1.55392e-007
Heightened Def Con from 1.55392e-007 to 1.55517e-007
Heightened Def Con from 1.55518e-007 to 1.55549e-007
Heightened Def Con from 1.55549e-007 ++to 1.55674e-007
Heightened Def Con from 1.55924e-007 to 1.57924e-007
Heightened Def Con from 1.59948e-007 to 1.59963e-007
Heightened Def Con from 1.59963e-007 to 1.59979e-007
Heightened Def Con from 1.59979e-007 ++to 1.59994e-007
Heightened Def Con from 1.59994e-007 ++++to 1.6001e-007
Heightened Def Con from 1.6001e-007 to 1.6001e-007
Heightened Def Con from 1.6001e-007 ++to 1.60135e-007
Heightened Def Con from 1.60167e-007 +++++to 1.61167e-007
Heightened Def Con from 1.61167e-007 to 1.61308e-007
Heightened Def Con from 1.61309e-007 to 1.61559e-007
Heightened Def Con from 1.61591e-007 ++++to 1.61716e-007
Heightened Def Con from 1.61716e-007 +to 1.62841e-007
Heightened Def Con from 1.63567e-007 to 1.65567e-007
Heightened Def Con from 1.65567e-007 to 1.65817e-007
Heightened Def Con from 1.65817e-007 to 1.65833e-007
Heightened Def Con from 1.65833e-007 to 1.65851e-007
Heightened Def Con from 1.65851e-007 +to 1.66976e-007
Heightened Def Con from 1.67007e-007 to 1.68007e-007
Heightened Def Con from 1.68007e-007 to 1.68007e-007
Heightened Def Con from 1.68007e-007 to 1.69007e-007
Heightened Def Con from 1.69007e-007 to 1.69007e-007
Heightened Def Con from 1.69007e-007 to 1.69007e-007
Heightened Def Con from 1.69007e-007 ++++to 1.70007e-007
Heightened Def Con from 1.70257e-007 to 1.70273e-007
Heightened Def Con from 1.70366e-007 to 1.72366e-007
Heightened Def Con from 1.72366e-007 ++to 1.73368e-007
Heightened Def Con from 1.73368e-007 +to 1.7337e-007
Heightened Def Con from 1.7337e-007 ++++++to 1.73386e-007
Heightened Def Con from 1.73386e-007 to 1.73387e-007
Heightened Def Con from 1.73387e-007 to 1.73402e-007
Heightened Def Con from 1.73402e-007 to 1.73402e-007
Heightened Def Con from 1.73402e-007 to 1.73433e-007
Heightened Def Con from 1.73433e-007 to 1.74558e-007
Heightened Def Con from 1.74558e-007 to 1.75558e-007
Heightened Def Con from 1.7559e-007 ++to 1.75715e-007
Heightened Def Con from 1.75715e-007 to 1.75715e-007
Heightened Def Con from 1.75715e-007 to 1.76715e-007
Heightened Def Con from 1.76715e-007 to 1.7784e-007
Heightened Def Con from 1.7784e-007 to 1.7784e-007
Heightened Def Con from 1.7784e-007 to 1.77965e-007
Heightened Def Con from 1.77965e-007 to 1.77996e-007
Heightened Def Con from 1.77996e-007 to 1.77996e-007
Heightened Def Con from 1.77996e-007 +to 1.78012e-007
Heightened Def Con from 1.78012e-007 to 1.78262e-007
Heightened Def Con from 1.78293e-007 to 1.78294e-007
Heightened Def Con from 1.78294e-007 ++to 1.78434e-007
Heightened Def Con from 1.78434e-007 +to 1.78438e-007
Heightened Def Con from 1.78439e-007 +to 1.7858e-007
Heightened Def Con from 1.7858e-007 to 1.78582e-007
Heightened Def Con from 1.78582e-007 to 1.78598e-007
Heightened Def Con from 1.78598e-007 +++to 1.79598e-007
Heightened Def Con from 1.79848e-007 to 1.80863e-007
Heightened Def Con from 1.80864e-007 to 1.80895e-007
Heightened Def Con from 1.80896e-007 to 1.80898e-007
Heightened Def Con from 1.80898e-007 ++to 1.80914e-007
Heightened Def Con from 1.80914e-007 +++to 1.81914e-007
Heightened Def Con from 1.81914e-007 ++to 1.82039e-007
Heightened Def Con from 1.82289e-007 to 1.82289e-007
Heightened Def Con from 1.82289e-007 ++to 1.83289e-007
Heightened Def Con from 1.83539e-007 to 1.84539e-007
Heightened Def Con from 1.84539e-007 to 1.84666e-007
Heightened Def Con from 1.8467e-007 to 1.8467e-007
Heightened Def Con from 1.8467e-007 to 1.84671e-007
Heightened Def Con from 1.84671e-007 to 1.84671e-007
Heightened Def Con from 1.84671e-007 to 1.84671e-007
Heightened Def Con from 1.84672e-007 ++to 1.84797e-007
Heightened Def Con from 1.84797e-007 to 1.84812e-007
Heightened Def Con from 1.84812e-007 to 1.84814e-007
Heightened Def Con from 1.84814e-007 to 1.84815e-007
Heightened Def Con from 1.84815e-007 to 1.84815e-007
Heightened Def Con from 1.84815e-007 to 1.84832e-007
Heightened Def Con from 1.84836e-007 to 1.84836e-007
Heightened Def Con from 1.84836e-007 +to 1.84852e-007
Heightened Def Con from 1.84852e-007 to 1.84852e-007
Heightened Def Con from 1.84852e-007 +++++to 1.84979e-007
Heightened Def Con from 1.85745e-007 to 1.85885e-007
Heightened Def Con from 1.85889e-007 to 1.86139e-007
Heightened Def Con from 1.86139e-007 to 1.87139e-007
Heightened Def Con from 1.89139e-007 +to 1.90264e-007
Heightened Def Con from 1.90514e-007 to 1.90516e-007
Heightened Def Con from 1.90516e-007 to 1.90641e-007
Heightened Def Con from 1.90641e-007 to 1.90641e-007
Heightened Def Con from 1.90641e-007 to 1.90766e-007
Heightened Def Con from 1.90766e-007 to 1.9077e-007
Heightened Def Con from 1.9077e-007 to 1.9077e-007
Heightened Def Con from 1.9077e-007 to 1.90788e-007
Heightened Def Con from 1.90788e-007 to 1.90804e-007
Heightened Def Con from 1.90807e-007 +to 1.91823e-007
Heightened Def Con from 1.91823e-007 to 1.91839e-007
Heightened Def Con from 1.91843e-007 to 1.91843e-007
Heightened Def Con from 1.91843e-007 +++++to 1.91859e-007
Heightened Def Con from 1.91891e-007 to 1.91908e-007
Heightened Def Con from 1.91908e-007 ++to 1.91924e-007
Heightened Def Con from 1.91924e-007 to 1.91928e-007
Heightened Def Con from 1.91929e-007 to 1.91929e-007
Heightened Def Con from 1.91929e-007 to 1.92069e-007
Heightened Def Con from 1.9207e-007 to 1.9207e-007
Heightened Def Con from 1.9207e-007 to 1.9207e-007
Heightened Def Con from 1.9207e-007 to 1.92072e-007
Heightened Def Con from 1.92072e-007 to 1.93197e-007
Heightened Def Con from 1.93197e-007 to 1.93199e-007
Heightened Def Con from 1.93199e-007 to 1.9323e-007
Heightened Def Con from 1.93234e-007 +to 1.93375e-007
Heightened Def Con from 1.93469e-007 to 1.93469e-007
Heightened Def Con from 1.93469e-007 to 1.95469e-007
Heightened Def Con from 1.97477e-007 to 1.97493e-007
Heightened Def Con from 1.97493e-007 to 1.97743e-007
Heightened Def Con from 1.97743e-007 to 1.97743e-007
Heightened Def Con from 1.97743e-007 ++to 1.97883e-007
Heightened Def Con from 1.97883e-007 +to 1.97915e-007
Heightened Def Con from 1.97915e-007 to 1.97919e-007
Heightened Def Con from 1.97919e-007 to 1.97936e-007
Heightened Def Con from 1.97936e-007 to 1.98952e-007
Heightened Def Con from 1.98983e-007 to 1.99233e-007
Heightened Def Con from 1.99233e-007 to 1.99483e-007
Heightened Def Con from 1.99796e-007 to 1.99921e-007
Heightened Def Con from 1.99921e-007 to 2.01046e-007
Heightened Def Con from 2.01296e-007 to 2.01311e-007
Heightened Def Con from 2.01311e-007 to 2.02313e-007
Heightened Def Con from 2.02313e-007 to 2.02313e-007
Heightened Def Con from 2.02313e-007 to 2.02563e-007
Heightened Def Con from 2.02563e-007 to 2.02563e-007
Heightened Def Con from 2.02563e-007 to 2.02579e-007
Heightened Def Con from 2.02579e-007 to 2.02829e-007
Heightened Def Con from 2.0286e-007 to 2.02861e-007
Heightened Def Con from 2.02861e-007 to 2.03001e-007
Heightened Def Con from 2.03001e-007 to 2.03017e-007
Heightened Def Con from 2.03048e-007 to 2.03064e-007
Heightened Def Con from 2.03105e-007 to 2.03107e-007
Heightened Def Con from 2.03107e-007 to 2.03109e-007
Heightened Def Con from 2.03109e-007 to 2.03109e-007
Heightened Def Con from 2.03109e-007 to 2.03111e-007
Heightened Def Con from 2.03111e-007 to 2.04236e-007
Heightened Def Con from 2.04267e-007 to 2.04392e-007
Heightened Def Con from 2.04431e-007 to 2.04431e-007
Heightened Def Con from 2.04431e-007 ++to 2.04556e-007
Heightened Def Con from 2.04587e-007 +to 2.04605e-007
Heightened Def Con from 2.0461e-007 to 2.0486e-007
Heightened Def Con from 2.0486e-007 +to 2.0686e-007
Heightened Def Con from 2.07624e-007 to 2.08749e-007
Heightened Def Con from 2.0878e-007 to 2.0978e-007
Heightened Def Con from 2.09793e-007 ++to 2.09918e-007
Heightened Def Con from 2.09918e-007 to 2.09933e-007
Heightened Def Con from 2.09933e-007 to 2.11933e-007
Heightened Def Con from 2.12183e-007 to 2.12184e-007
Heightened Def Con from 2.12184e-007 to 2.13184e-007
Heightened Def Con from 2.13184e-007 to 2.13216e-007
Heightened Def Con from 2.13216e-007 to 2.14217e-007
Heightened Def Con from 2.14217e-007 to 2.14219e-007
Heightened Def Con from 2.14224e-007 to 2.16224e-007
Heightened Def Con from 2.16476e-007 to 2.16507e-007
Heightened Def Con from 2.16508e-007 to 2.16523e-007
Heightened Def Con from 2.16523e-007 to 2.16773e-007
Heightened Def Con from 2.16773e-007 to 2.16805e-007
Heightened Def Con from 2.16819e-007 to 2.16835e-007
Heightened Def Con from 2.16835e-007 to 2.16835e-007
Heightened Def Con from 2.16835e-007 to 2.1685e-007
Heightened Def Con from 2.1685e-007 to 2.16975e-007
Heightened Def Con from 2.16976e-007 to 2.18976e-007
Heightened Def Con from 2.18976e-007 to 2.18976e-007
Heightened Def Con from 2.18976e-007 to 2.20976e-007
Heightened Def Con from 2.20976e-007 +to 2.21101e-007
Heightened Def Con from 2.21101e-007 to 2.21116e-007
Heightened Def Con from 2.21116e-007 +to 2.21134e-007
Heightened Def Con from 2.21146e-007 +to 2.22146e-007
Heightened Def Con from 2.22146e-007 to 2.24146e-007
Heightened Def Con from 2.24186e-007 to 2.24217e-007
Heightened Def Con from 2.24248e-007 to 2.24248e-007
Heightened Def Con from 2.24248e-007 to 2.25264e-007
Heightened Def Con from 2.25299e-007 +to 2.26299e-007
Heightened Def Con from 2.28819e-007 to 2.29819e-007
Heightened Def Con from 2.29819e-007 to 2.31819e-007
Heightened Def Con from 2.37945e-007 +to 2.37961e-007
Heightened Def Con from 2.37961e-007 +++to 2.38961e-007
Heightened Def Con from 2.41025e-007 to 2.41275e-007
Heightened Def Con from 2.41307e-007 to 2.42432e-007
Heightened Def Con from 2.42472e-007 to 2.42472e-007
Heightened Def Con from 2.42472e-007 to 2.42599e-007
Heightened Def Con from 2.42599e-007 to 2.4274e-007
Heightened Def Con from 2.4274e-007 to 2.43755e-007
Heightened Def Con from 2.43759e-007 to 2.4379e-007
Heightened Def Con from 2.43791e-007 to 2.43931e-007
Heightened Def Con from 2.43931e-007 to 2.44056e-007
Heightened Def Con from 2.44056e-007 +to 2.45056e-007
Heightened Def Con from 2.45308e-007 to 2.4531e-007
Heightened Def Con from 2.4531e-007 +++++to 2.45312e-007
Heightened Def Con from 2.45312e-007 to 2.46314e-007
Heightened Def Con from 2.46318e-007 to 2.46458e-007
Heightened Def Con from 2.46458e-007 to 2.4646e-007
Heightened Def Con from 2.46464e-007 to 2.4648e-007
Heightened Def Con from 2.46511e-007 +to 2.46652e-007
Heightened Def Con from 2.46652e-007 to 2.46654e-007
Heightened Def Con from 2.46654e-007 to 2.46654e-007
Heightened Def Con from 2.46654e-007 to 2.47779e-007
Heightened Def Con from 2.48029e-007 to 2.48154e-007
Heightened Def Con from 2.48154e-007 to 2.48156e-007
Heightened Def Con from 2.48156e-007 to 2.48156e-007
Heightened Def Con from 2.48156e-007 to 2.48156e-007
Heightened Def Con from 2.48156e-007 to 2.49281e-007
Heightened Def Con from 2.49281e-007 to 2.49281e-007
Heightened Def Con from 2.49281e-007 +++to 2.49406e-007
Heightened Def Con from 2.49407e-007 to 2.49657e-007
Heightened Def Con from 2.49657e-007 to 2.49784e-007
Heightened Def Con from 2.49784e-007 to 2.498e-007
Heightened Def Con from 2.498e-007 ++to 2.49925e-007
Heightened Def Con from 2.49929e-007 to 2.49929e-007
Heightened Def Con from 2.49929e-007 to 2.49929e-007
Heightened Def Con from 2.49929e-007 +to 2.49945e-007
Heightened Def Con from 2.49945e-007 to 2.49945e-007
Heightened Def Con from 2.49945e-007 +to 2.5007e-007
Heightened Def Con from 2.5007e-007 to 2.50072e-007
Heightened Def Con from 2.50072e-007 to 2.50322e-007
Heightened Def Con from 2.50354e-007 to 2.50355e-007
Heightened Def Con from 2.50367e-007 to 2.50383e-007
Heightened Def Con from 2.50383e-007 +to 2.50414e-007
Heightened Def Con from 2.50415e-007 to 2.5154e-007
Heightened Def Con from 2.5154e-007 to 2.51542e-007
Heightened Def Con from 2.51546e-007 to 2.51796e-007
Heightened Def Con from 2.52109e-007 +to 2.52236e-007
Heightened Def Con from 2.52277e-007 to 2.54277e-007
Heightened Def Con from 2.56277e-007 to 2.56402e-007
Heightened Def Con from 2.56402e-007 to 2.56404e-007
Heightened Def Con from 2.56404e-007 to 2.56654e-007
Heightened Def Con from 2.56658e-007 to 2.56658e-007
Heightened Def Con from 2.56658e-007 to 2.58658e-007
Heightened Def Con from 2.58658e-007 to 2.58783e-007
Heightened Def Con from 2.58783e-007 to 2.59785e-007
Heightened Def Con from 2.59785e-007 to 2.60035e-007
Heightened Def Con from 2.60035e-007 to 2.61051e-007
Heightened Def Con from 2.61051e-007 to 2.62176e-007
Heightened Def Con from 2.6218e-007 ++to 2.6318e-007
Heightened Def Con from 2.63445e-007 +to 2.64445e-007
Heightened Def Con from 2.64445e-007 to 2.66445e-007
Heightened Def Con from 2.68523e-007 to 2.68648e-007
Heightened Def Con from 2.68653e-007 to 2.68653e-007
Heightened Def Con from 2.68653e-007 to 2.68669e-007
Heightened Def Con from 2.68669e-007 to 2.6881e-007
Heightened Def Con from 2.6881e-007 to 2.6881e-007
Heightened Def Con from 2.6881e-007 to 2.68814e-007
Heightened Def Con from 2.68814e-007 to 2.69064e-007
Heightened Def Con from 2.69064e-007 to 2.69079e-007
Heightened Def Con from 2.6908e-007 to 2.70096e-007
Heightened Def Con from 2.70102e-007 to 2.70102e-007
Heightened Def Con from 2.70102e-007 to 2.71104e-007
Heightened Def Con from 2.71111e-007 to 2.71112e-007
Heightened Def Con from 2.71112e-007 +to 2.72114e-007
Heightened Def Con from 2.72115e-007 to 2.72115e-007
Heightened Def Con from 2.72115e-007 to 2.72365e-007
Heightened Def Con from 2.72685e-007 to 2.72702e-007
Heightened Def Con from 2.72702e-007 to 2.72734e-007
Heightened Def Con from 2.72734e-007 to 2.74734e-007
Heightened Def Con from 2.76796e-007 to 2.76812e-007
Heightened Def Con from 2.76812e-007 to 2.76812e-007
Heightened Def Con from 2.76812e-007 to 2.76827e-007
Heightened Def Con from 2.76827e-007 to 2.76859e-007
Heightened Def Con from 2.76898e-007 to 2.77023e-007
Heightened Def Con from 2.77023e-007 to 2.77023e-007
Heightened Def Con from 2.77023e-007 +++to 2.78023e-007
Heightened Def Con from 2.78027e-007 to 2.78029e-007
Heightened Def Con from 2.78029e-007 to 2.78029e-007
Heightened Def Con from 2.7803e-007 ++++++++to 2.78155e-007
Heightened Def Con from 2.78155e-007 to 2.7828e-007
Heightened Def Con from 2.7828e-007 to 2.7828e-007
Heightened Def Con from 2.7828e-007 to 2.78295e-007
Heightened Def Con from 2.78295e-007 to 2.78295e-007
Heightened Def Con from 2.78295e-007 to 2.79311e-007
Heightened Def Con from 2.79315e-007 ++++to 2.7933e-007
Heightened Def Con from 2.7933e-007 to 2.79455e-007
Heightened Def Con from 2.81206e-007 to 2.81221e-007
Heightened Def Con from 2.81221e-007 to 2.81471e-007
Heightened Def Con from 2.81471e-007 +to 2.82473e-007
Heightened Def Con from 2.82477e-007 +to 2.82604e-007
Heightened Def Con from 2.82604e-007 to 2.82606e-007
Heightened Def Con from 2.82606e-007 ++to 2.82731e-007
Heightened Def Con from 2.82731e-007 to 2.82856e-007
Heightened Def Con from 2.82856e-007 ++++to 2.82981e-007
Heightened Def Con from 2.82981e-007 to 2.83981e-007
Heightened Def Con from 2.84231e-007 +to 2.86231e-007
Heightened Def Con from 2.88255e-007 to 2.88255e-007
Heightened Def Con from 2.88255e-007 to 2.88257e-007
Heightened Def Con from 2.88261e-007 to 2.90261e-007
Heightened Def Con from 2.90518e-007 +++to 2.90643e-007
Heightened Def Con from 2.90643e-007 to 2.90647e-007
Heightened Def Con from 2.90648e-007 to 2.90648e-007
Heightened Def Con from 2.90648e-007 to 2.90648e-007
Heightened Def Con from 2.90648e-007 to 2.90666e-007
Heightened Def Con from 2.90666e-007 to 2.90666e-007
Heightened Def Con from 2.90666e-007 to 2.90666e-007
Heightened Def Con from 2.90666e-007 +to 2.90697e-007
Heightened Def Con from 2.90697e-007 to 2.90822e-007
Heightened Def Con from 2.90822e-007 to 2.90838e-007
Heightened Def Con from 2.90839e-007 +to 2.92839e-007
Heightened Def Con from 2.92839e-007 +to 2.93839e-007
Heightened Def Con from 2.9584e-007 to 2.96855e-007
Heightened Def Con from 2.96855e-007 to 2.96855e-007
Heightened Def Con from 2.96855e-007 to 2.96856e-007
Heightened Def Con from 2.96856e-007 to 2.97856e-007
Heightened Def Con from 2.97856e-007 +to 2.98856e-007
Heightened Def Con from 2.98856e-007 to 2.98858e-007
Heightened Def Con from 2.98858e-007 to 2.98858e-007
Heightened Def Con from 2.98858e-007 +++++++to 2.9886e-007
Heightened Def Con from 2.98864e-007 to 2.98864e-007
Heightened Def Con from 2.98864e-007 to 2.98864e-007
Heightened Def Con from 2.98864e-007 +to 2.99989e-007
Heightened Def Con from 3.00137e-007 to 3.00137e-007
Heightened Def Con from 3.00137e-007 to 3.00137e-007
Heightened Def Con from 3.00137e-007 ++++to 3.00262e-007
Heightened Def Con from 3.00266e-007 to 3.00266e-007
Heightened Def Con from 3.00266e-007 to 3.00297e-007
Heightened Def Con from 3.00297e-007 to 3.01299e-007
Heightened Def Con from 3.01299e-007 ++to 3.01315e-007
Heightened Def Con from 3.01315e-007 to 3.01315e-007
Heightened Def Con from 3.01315e-007 +++to 3.02315e-007
Heightened Def Con from 3.02346e-007 to 3.02471e-007
Heightened Def Con from 3.02721e-007 +++to 3.02846e-007
Heightened Def Con from 3.02846e-007 ++to 3.03846e-007
Heightened Def Con from 3.03846e-007 ++++++to 3.04846e-007
Heightened Def Con from 3.04846e-007 ++to 3.04971e-007
Heightened Def Con from 3.05003e-007 to 3.05003e-007
Heightened Def Con from 3.05003e-007 to 3.05129e-007
Heightened Def Con from 3.0513e-007 to 3.0513e-007
Heightened Def Con from 3.0513e-007 ++++++to 3.05146e-007
Heightened Def Con from 3.0515e-007 to 3.0515e-007
Heightened Def Con from 3.0515e-007 +to 3.05181e-007
Heightened Def Con from 3.05185e-007 +to 3.072e-007
Heightened Def Con from 3.072e-007 to 3.072e-007
Heightened Def Con from 3.072e-007 to 3.072e-007
Heightened Def Con from 3.072e-007 +++to 3.07325e-007
Heightened Def Con from 3.07357e-007 to 3.07359e-007
Heightened Def Con from 3.07362e-007 ++++++to 3.07487e-007
Heightened Def Con from 3.07499e-007 +++++to 3.07624e-007
Heightened Def Con from 3.07624e-007 ++to 3.08751e-007
Heightened Def Con from 3.08751e-007 to 3.08753e-007
Heightened Def Con from 3.08753e-007 to 3.08753e-007
Heightened Def Con from 3.08753e-007 ++to 3.09753e-007
Heightened Def Con from 3.11761e-007 to 3.11777e-007
Heightened Def Con from 3.11777e-007 +++++to 3.12777e-007
Heightened Def Con from 3.12777e-007 to 3.12779e-007
Heightened Def Con from 3.12779e-007 to 3.12904e-007
Heightened Def Con from 3.12904e-007 +++++to 3.13029e-007
Heightened Def Con from 3.13034e-007 to 3.13049e-007
Heightened Def Con from 3.13049e-007 ++to 3.13065e-007
Heightened Def Con from 3.13096e-007 to 3.13098e-007
Heightened Def Con from 3.13098e-007 to 3.13098e-007
Heightened Def Con from 3.13098e-007 +to 3.14098e-007
Heightened Def Con from 3.14098e-007 to 3.14116e-007
Heightened Def Con from 3.14116e-007 to 3.14117e-007
Heightened Def Con from 3.14117e-007 +to 3.14135e-007
Heightened Def Con from 3.14138e-007 to 3.15263e-007
Heightened Def Con from 3.15263e-007 ++to 3.15388e-007
Heightened Def Con from 3.15388e-007 to 3.16388e-007
Heightened Def Con from 3.16388e-007 to 3.18388e-007
Heightened Def Con from 3.18388e-007 ++to 3.18404e-007
Heightened Def Con from 3.18404e-007 +++to 3.18529e-007
Heightened Def Con from 3.18529e-007 to 3.18529e-007
Heightened Def Con from 3.18529e-007 to 3.19531e-007
Heightened Def Con from 3.19531e-007 to 3.19547e-007
Heightened Def Con from 3.19547e-007 ++to 3.19562e-007
Heightened Def Con from 3.19562e-007 to 3.19566e-007
Heightened Def Con from 3.19566e-007 ++to 3.20566e-007
Heightened Def Con from 3.22566e-007 to 3.22566e-007
Heightened Def Con from 3.22566e-007 ++to 3.22707e-007
Heightened Def Con from 3.22711e-007 to 3.23711e-007
Heightened Def Con from 3.23711e-007 +++++++++to 3.23836e-007
Heightened Def Con from 3.23836e-007 to 3.23837e-007
Heightened Def Con from 3.23837e-007 +++++++to 3.23852e-007
Heightened Def Con from 3.23852e-007 to 3.23977e-007
Heightened Def Con from 3.23978e-007 to 3.24009e-007
Heightened Def Con from 3.2404e-007 to 3.24056e-007
Heightened Def Con from 3.24087e-007 to 3.24103e-007
Heightened Def Con from 3.24103e-007 ++to 3.24118e-007
Heightened Def Con from 3.24118e-007 ++++to 3.24243e-007
Heightened Def Con from 3.24243e-007 +++++to 3.2437e-007
Heightened Def Con from 3.24382e-007 to 3.24382e-007
Heightened Def Con from 3.24382e-007 to 3.24398e-007
Heightened Def Con from 3.24398e-007 to 3.24398e-007
Heightened Def Con from 3.24398e-007 to 3.24398e-007
Heightened Def Con from 3.24398e-007 ++++++to 3.24413e-007
Heightened Def Con from 3.24413e-007 to 3.24538e-007
Heightened Def Con from 3.24538e-007 to 3.24538e-007
Heightened Def Con from 3.24538e-007 ++++++++to 3.25663e-007
Heightened Def Con from 3.25913e-007 to 3.26913e-007
Heightened Def Con from 3.26918e-007 +to 3.27043e-007
Heightened Def Con from 3.27293e-007 +to 3.27309e-007
Heightened Def Con from 3.27309e-007 to 3.27309e-007
Heightened Def Con from 3.27309e-007 ++++to 3.27434e-007
Heightened Def Con from 3.27684e-007 to 3.27684e-007
Heightened Def Con from 3.27684e-007 to 3.27688e-007
Heightened Def Con from 3.27688e-007 to 3.27688e-007
Heightened Def Con from 3.27688e-007 to 3.2769e-007
Heightened Def Con from 3.2769e-007 to 3.2794e-007
Heightened Def Con from 3.2794e-007 to 3.2794e-007
Heightened Def Con from 3.2794e-007 to 3.2794e-007
Heightened Def Con from 3.2794e-007 +++++to 3.27956e-007
Heightened Def Con from 3.27956e-007 to 3.28081e-007
Heightened Def Con from 3.28081e-007 +++++to 3.28082e-007
Heightened Def Con from 3.28083e-007 ++++to 3.29083e-007
Heightened Def Con from 3.32583e-007 to 3.32583e-007
Heightened Def Con from 3.32583e-007 to 3.32833e-007
Heightened Def Con from 3.33597e-007 to 3.33597e-007
Heightened Def Con from 3.33597e-007 to 3.34597e-007
Heightened Def Con from 3.34597e-007 to 3.35613e-007
Heightened Def Con from 3.35644e-007 to 3.36769e-007
Heightened Def Con from 3.36769e-007 to 3.36785e-007
Heightened Def Con from 3.36785e-007 +++++++++++++to 3.37785e-007
Heightened Def Con from 3.38097e-007 to 3.38113e-007
Heightened Def Con from 3.38117e-007 to 3.38117e-007
Heightened Def Con from 3.38117e-007 +to 3.38258e-007
Heightened Def Con from 3.38262e-007 +to 3.39387e-007
Heightened Def Con from 3.39645e-007 +to 3.40645e-007
Heightened Def Con from 3.40645e-007 ++++to 3.41645e-007
Heightened Def Con from 3.41645e-007 to 3.41645e-007
Heightened Def Con from 3.41645e-007 +to 3.42645e-007
Heightened Def Con from 3.42645e-007 +to 3.42786e-007
Heightened Def Con from 3.42786e-007 to 3.43786e-007
Heightened Def Con from 3.43786e-007 to 3.43786e-007
Heightened Def Con from 3.43786e-007 +to 3.44927e-007
Heightened Def Con from 3.45177e-007 +to 3.45304e-007
Heightened Def Con from 3.45304e-007 to 3.45322e-007
Heightened Def Con from 3.45326e-007 to 3.45326e-007
Heightened Def Con from 3.45326e-007 to 3.45357e-007
Heightened Def Con from 3.45357e-007 +++to 3.46357e-007
Heightened Def Con from 3.46607e-007 to 3.46732e-007
Heightened Def Con from 3.46732e-007 to 3.46748e-007
Heightened Def Con from 3.46748e-007 ++to 3.47748e-007
Heightened Def Con from 3.47998e-007 +++to 3.48123e-007
Heightened Def Con from 3.48125e-007 to 3.48125e-007
Heightened Def Con from 3.48125e-007 to 3.4825e-007
Heightened Def Con from 3.4825e-007 to 3.5025e-007
Heightened Def Con from 3.5025e-007 to 3.5025e-007
Heightened Def Con from 3.5025e-007 +++++to 3.50375e-007
Heightened Def Con from 3.50485e-007 to 3.505e-007
Heightened Def Con from 3.505e-007 to 3.50516e-007
Heightened Def Con from 3.50516e-007 to 3.50518e-007
Heightened Def Con from 3.50518e-007 +to 3.51534e-007
Heightened Def Con from 3.51534e-007 to 3.51534e-007
Heightened Def Con from 3.51534e-007 to 3.51565e-007
Heightened Def Con from 3.51596e-007 to 3.51596e-007
Heightened Def Con from 3.51596e-007 to 3.52612e-007
Heightened Def Con from 3.52612e-007 to 3.52629e-007
Heightened Def Con from 3.52629e-007 to 3.52756e-007
Heightened Def Con from 3.5276e-007 to 3.52776e-007
Heightened Def Con from 3.52807e-007 to 3.52807e-007
Heightened Def Con from 3.52807e-007 +++++to 3.52932e-007
Heightened Def Con from 3.52932e-007 to 3.53932e-007
Heightened Def Con from 3.53936e-007 to 3.53936e-007
Heightened Def Con from 3.53936e-007 +++to 3.54936e-007
Heightened Def Con from 3.57438e-007 to 3.57439e-007
Heightened Def Con from 3.57439e-007 +to 3.58439e-007
Heightened Def Con from 3.58439e-007 ++++to 3.5847e-007
Heightened Def Con from 3.5847e-007 ++to 3.58595e-007
Heightened Def Con from 3.58627e-007 to 3.58627e-007
Heightened Def Con from 3.58627e-007 to 3.58629e-007
Heightened Def Con from 3.58629e-007 to 3.58756e-007
Heightened Def Con from 3.58756e-007 +++++to 3.58758e-007
Heightened Def Con from 3.58758e-007 +to 3.58901e-007
Heightened Def Con from 3.58901e-007 ++to 3.59026e-007
Heightened Def Con from 3.59059e-007 ++++to 3.59184e-007
Heightened Def Con from 3.59188e-007 +++to 3.60188e-007
Heightened Def Con from 3.60438e-007 to 3.60578e-007
Heightened Def Con from 3.60578e-007 to 3.61578e-007
Heightened Def Con from 3.61579e-007 ++to 3.63579e-007
Heightened Def Con from 3.63675e-007 +to 3.64675e-007
Heightened Def Con from 3.64676e-007 ++to 3.65691e-007
Heightened Def Con from 3.65722e-007 to 3.65738e-007
Heightened Def Con from 3.65738e-007 to 3.65863e-007
Heightened Def Con from 3.65957e-007 to 3.65957e-007
Heightened Def Con from 3.65957e-007 to 3.67957e-007
Heightened Def Con from 3.67988e-007 to 3.69988e-007
Heightened Def Con from 3.7002e-007 ++to 3.70145e-007
Heightened Def Con from 3.70149e-007 to 3.70149e-007
Heightened Def Con from 3.70149e-007 +to 3.70276e-007
Heightened Def Con from 3.70276e-007 to 3.72276e-007
Heightened Def Con from 3.72279e-007 +to 3.7242e-007
Heightened Def Con from 3.72432e-007 ++to 3.72557e-007
Heightened Def Con from 3.72588e-007 to 3.72713e-007
Heightened Def Con from 3.72713e-007 ++to 3.72729e-007
Heightened Def Con from 3.72729e-007 +to 3.73854e-007
Heightened Def Con from 3.73885e-007 to 3.74885e-007
Heightened Def Con from 3.75004e-007 to 3.75005e-007
Heightened Def Con from 3.75005e-007 to 3.76007e-007
Heightened Def Con from 3.76007e-007 +to 3.77009e-007
Heightened Def Con from 3.77013e-007 +++++to 3.77015e-007
Heightened Def Con from 3.77015e-007 +to 3.78015e-007
Heightened Def Con from 3.78015e-007 ++++to 3.79015e-007
Heightened Def Con from 3.81517e-007 ++to 3.81642e-007
Heightened Def Con from 3.81902e-007 to 3.81904e-007
Heightened Def Con from 3.81904e-007 ++++++to 3.82029e-007
Heightened Def Con from 3.82287e-007 to 3.82287e-007
Heightened Def Con from 3.82287e-007 ++++to 3.82302e-007
Heightened Def Con from 3.82302e-007 to 3.82303e-007
Heightened Def Con from 3.82303e-007 +to 3.82305e-007
Heightened Def Con from 3.82305e-007 to 3.82305e-007
Heightened Def Con from 3.82305e-007 to 3.83307e-007
Heightened Def Con from 3.83307e-007 to 3.83432e-007
Heightened Def Con from 3.83432e-007 to 3.83463e-007
Heightened Def Con from 3.83495e-007 ++to 3.8362e-007
Heightened Def Con from 3.8362e-007 to 3.8462e-007
Heightened Def Con from 3.8462e-007 to 3.8462e-007
Heightened Def Con from 3.8462e-007 to 3.85745e-007
Heightened Def Con from 3.86511e-007 to 3.86526e-007
Heightened Def Con from 3.86526e-007 to 3.86526e-007
Heightened Def Con from 3.86526e-007 to 3.86542e-007
Heightened Def Con from 3.86542e-007 +to 3.87667e-007
Heightened Def Con from 3.87917e-007 to 3.87917e-007
Heightened Def Con from 3.87917e-007 +++++++to 3.88917e-007
Heightened Def Con from 3.88949e-007 ++to 3.88964e-007
Heightened Def Con from 3.88964e-007 to 3.88964e-007
Heightened Def Con from 3.88964e-007 +to 3.90089e-007
Heightened Def Con from 3.90839e-007 +to 3.90857e-007
Heightened Def Con from 3.90857e-007 to 3.91857e-007
Heightened Def Con from 3.91857e-007 ++to 3.92859e-007
Heightened Def Con from 3.92864e-007 to 3.92895e-007
Heightened Def Con from 3.92895e-007 to 3.93021e-007
Heightened Def Con from 3.93021e-007 to 3.93036e-007
Heightened Def Con from 3.93036e-007 to 3.93036e-007
Heightened Def Con from 3.93036e-007 ++++to 3.94036e-007
Heightened Def Con from 3.94036e-007 +to 3.94164e-007
Heightened Def Con from 3.94168e-007 ++to 3.94293e-007
Heightened Def Con from 3.94293e-007 to 3.94309e-007
Heightened Def Con from 3.94309e-007 to 3.94309e-007
Heightened Def Con from 3.94309e-007 +to 3.94309e-007
Heightened Def Con from 3.94309e-007 +to 3.95325e-007
Heightened Def Con from 3.95325e-007 +++to 3.9545e-007
Heightened Def Con from 3.972e-007 +to 3.97218e-007
Heightened Def Con from 3.97218e-007 ++to 3.98218e-007
Heightened Def Con from 3.98468e-007 to 4.00468e-007
Heightened Def Con from 4.00472e-007 to 4.00597e-007
Heightened Def Con from 4.00597e-007 to 4.00628e-007
Heightened Def Con from 4.00628e-007 to 4.00628e-007
Heightened Def Con from 4.00628e-007 +to 4.00769e-007
Heightened Def Con from 4.00769e-007 to 4.00771e-007
Heightened Def Con from 4.00771e-007 +++++++++to 4.00789e-007
Heightened Def Con from 4.00789e-007 to 4.00804e-007
Heightened Def Con from 4.00804e-007 to 4.00805e-007
Heightened Def Con from 4.00805e-007 to 4.00808e-007
Heightened Def Con from 4.00808e-007 to 4.00933e-007
Heightened Def Con from 4.00933e-007 to 4.00933e-007
Heightened Def Con from 4.00933e-007 to 4.00949e-007
Heightened Def Con from 4.00949e-007 ++++++to 4.01949e-007
Heightened Def Con from 4.03949e-007 to 4.04949e-007
Heightened Def Con from 4.04981e-007 ++++to 4.04996e-007
Heightened Def Con from 4.05e-007 to 4.05016e-007
Heightened Def Con from 4.05016e-007 to 4.05016e-007
Heightened Def Con from 4.05016e-007 to 4.05266e-007
Heightened Def Con from 4.05266e-007 ++to 4.06266e-007
Heightened Def Con from 4.06266e-007 to 4.08266e-007
Heightened Def Con from 4.08516e-007 ++++to 4.08532e-007
Heightened Def Con from 4.08571e-007 to 4.08587e-007
Heightened Def Con from 4.08587e-007 to 4.08837e-007
Heightened Def Con from 4.08837e-007 to 4.09837e-007
Heightened Def Con from 4.09837e-007 to 4.09837e-007
Heightened Def Con from 4.09837e-007 to 4.09853e-007
Heightened Def Con from 4.09853e-007 ++to 4.10853e-007
Heightened Def Con from 4.12915e-007 to 4.12931e-007
Heightened Def Con from 4.12931e-007 to 4.12931e-007
Heightened Def Con from 4.12931e-007 to 4.13931e-007
Heightened Def Con from 4.13931e-007 to 4.13933e-007
Heightened Def Con from 4.13933e-007 to 4.14935e-007
Heightened Def Con from 4.14935e-007 to 4.14935e-007
Heightened Def Con from 4.14935e-007 to 4.14937e-007
Heightened Def Con from 4.14937e-007 to 4.14939e-007
Heightened Def Con from 4.14939e-007 to 4.15066e-007
Heightened Def Con from 4.15071e-007 to 4.15073e-007
Heightened Def Con from 4.15074e-007 to 4.15074e-007
Heightened Def Con from 4.15074e-007 to 4.15076e-007
Heightened Def Con from 4.15077e-007 to 4.15092e-007
Heightened Def Con from 4.15092e-007 +to 4.15233e-007
Heightened Def Con from 4.15233e-007 +++++to 4.15235e-007
Heightened Def Con from 4.15235e-007 to 4.15253e-007
Heightened Def Con from 4.15265e-007 to 4.15265e-007
Heightened Def Con from 4.15266e-007 to 4.16282e-007
Heightened Def Con from 4.16313e-007 to 4.16438e-007
Heightened Def Con from 4.16443e-007 to 4.16568e-007
Heightened Def Con from 4.16568e-007 to 4.16586e-007
Heightened Def Con from 4.16586e-007 to 4.16586e-007
Heightened Def Con from 4.16586e-007 to 4.16713e-007
Heightened Def Con from 4.16713e-007 to 4.16715e-007
Heightened Def Con from 4.16715e-007 ++to 4.17715e-007
Heightened Def Con from 4.17715e-007 to 4.1784e-007
Heightened Def Con from 4.1784e-007 to 4.17844e-007
Heightened Def Con from 4.17855e-007 ++++to 4.18855e-007
Heightened Def Con from 4.48856e-007 +to 4.48873e-007
Heightened Def Con from 4.48873e-007 to 4.49889e-007
Heightened Def Con from 4.49889e-007 to 4.49889e-007
Heightened Def Con from 4.49889e-007 to 4.50014e-007
Heightened Def Con from 4.50014e-007 to 4.50264e-007
Heightened Def Con from 4.50264e-007 to 4.51264e-007
Heightened Def Con from 4.51268e-007 +++++to 4.51393e-007
Heightened Def Con from 4.51393e-007 to 4.51409e-007
Heightened Def Con from 4.51414e-007 ++to 4.52414e-007
Heightened Def Con from 4.52414e-007 to 4.52429e-007
Heightened Def Con from 4.52429e-007 +to 4.52431e-007
Heightened Def Con from 4.52431e-007 to 4.52572e-007
Heightened Def Con from 4.52572e-007 to 4.52572e-007
Heightened Def Con from 4.52572e-007 to 4.52574e-007
Heightened Def Con from 4.52574e-007 +++to 4.52714e-007
Heightened Def Con from 4.5281e-007 +to 4.5381e-007
Heightened Def Con from 4.5381e-007 to 4.53811e-007
Heightened Def Con from 4.53811e-007 to 4.54936e-007
Heightened Def Con from 4.54936e-007 ++++to 4.55936e-007
Heightened Def Con from 4.55936e-007 to 4.55936e-007
Heightened Def Con from 4.55936e-007 to 4.55938e-007
Heightened Def Con from 4.55942e-007 to 4.55944e-007
Heightened Def Con from 4.55944e-007 +to 4.56194e-007
Heightened Def Con from 4.56513e-007 to 4.56513e-007
Heightened Def Con from 4.56513e-007 +to 4.58513e-007
Heightened Def Con from 4.58545e-007 to 4.58549e-007
Heightened Def Con from 4.58549e-007 +to 4.58551e-007
Heightened Def Con from 4.58551e-007 to 4.58691e-007
Heightened Def Con from 4.58691e-007 ++to 4.58707e-007
Heightened Def Con from 4.58707e-007 to 4.58707e-007
Heightened Def Con from 4.58707e-007 to 4.59723e-007
Heightened Def Con from 4.59723e-007 to 4.59725e-007
Heightened Def Con from 4.59725e-007 to 4.59975e-007
Heightened Def Con from 4.59975e-007 to 4.60225e-007
Heightened Def Con from 4.60225e-007 to 4.60241e-007
Heightened Def Con from 4.60241e-007 to 4.60241e-007
Heightened Def Con from 4.60241e-007 +to 4.60366e-007
Heightened Def Con from 4.60393e-007 ++to 4.60409e-007
Heightened Def Con from 4.60448e-007 to 4.60448e-007
Heightened Def Con from 4.60448e-007 to 4.60464e-007
Heightened Def Con from 4.60464e-007 to 4.60464e-007
Heightened Def Con from 4.60464e-007 to 4.60464e-007
Heightened Def Con from 4.60464e-007 to 4.60464e-007
Heightened Def Con from 4.60464e-007 to 4.61464e-007
Heightened Def Con from 4.61464e-007 to 4.62589e-007
Heightened Def Con from 4.62589e-007 ++to 4.63589e-007
Heightened Def Con from 4.63839e-007 +to 4.6384e-007
Heightened Def Con from 4.6384e-007 +++++to 4.63855e-007
Heightened Def Con from 4.63965e-007 to 4.63965e-007
Heightened Def Con from 4.63965e-007 to 4.63965e-007
Heightened Def Con from 4.63965e-007 ++to 4.64981e-007
Heightened Def Con from 4.64981e-007 to 4.64981e-007
Heightened Def Con from 4.64982e-007 to 4.64982e-007
Heightened Def Con from 4.64982e-007 +++to 4.65998e-007
Heightened Def Con from 4.65998e-007 +to 4.66e-007
Heightened Def Con from 4.66e-007 +++++to 4.66125e-007
Heightened Def Con from 4.66137e-007 to 4.66137e-007
Heightened Def Con from 4.66137e-007 to 4.66262e-007
Heightened Def Con from 4.66262e-007 to 4.67262e-007
Heightened Def Con from 4.67262e-007 to 4.68264e-007
Heightened Def Con from 4.68264e-007 +to 4.68389e-007
Heightened Def Con from 4.68389e-007 to 4.68393e-007
Heightened Def Con from 4.68393e-007 to 4.68393e-007
Heightened Def Con from 4.68393e-007 to 4.69518e-007
Heightened Def Con from 4.69518e-007 to 4.69518e-007
Heightened Def Con from 4.69518e-007 +to 4.69549e-007
Heightened Def Con from 4.69549e-007 ++to 4.69674e-007
Heightened Def Con from 4.69674e-007 +to 4.69924e-007
Heightened Def Con from 4.69924e-007 to 4.70049e-007
Heightened Def Con from 4.70049e-007 to 4.70065e-007
Heightened Def Con from 4.70065e-007 to 4.70065e-007
Heightened Def Con from 4.70065e-007 to 4.70065e-007
Heightened Def Con from 4.70065e-007 to 4.70065e-007
Heightened Def Con from 4.70065e-007 to 4.70065e-007
Heightened Def Con from 4.70065e-007 to 4.70065e-007
Heightened Def Con from 4.70065e-007 to 4.70065e-007
Heightened Def Con from 4.70065e-007 to 4.72065e-007
Heightened Def Con from 4.72069e-007 to 4.72084e-007
Heightened Def Con from 4.72194e-007 to 4.74194e-007
Heightened Def Con from 4.74445e-007 to 4.75447e-007
Heightened Def Con from 4.75449e-007 to 4.75449e-007
Heightened Def Con from 4.75449e-007 to 4.75574e-007
Heightened Def Con from 4.75574e-007 to 4.76699e-007
Heightened Def Con from 4.76703e-007 to 4.77828e-007
Heightened Def Con from 4.77859e-007 to 4.77877e-007
Heightened Def Con from 4.77877e-007 to 4.78892e-007
Heightened Def Con from 4.78924e-007 to 4.79049e-007
Heightened Def Con from 4.79049e-007 +++++to 4.79051e-007
Heightened Def Con from 4.79051e-007 to 4.79053e-007
Heightened Def Con from 4.79053e-007 to 4.79053e-007
Heightened Def Con from 4.79053e-007 ++to 4.79069e-007
Heightened Def Con from 4.791e-007 ++++to 4.801e-007
Heightened Def Con from 4.82101e-007 to 4.84101e-007
Heightened Def Con from 4.84351e-007 to 4.84382e-007
Heightened Def Con from 4.84383e-007 +to 4.84398e-007
Heightened Def Con from 4.84398e-007 to 4.84523e-007
Heightened Def Con from 4.84523e-007 to 4.84523e-007
Heightened Def Con from 4.84523e-007 +to 4.84539e-007
Heightened Def Con from 4.84539e-007 to 4.84555e-007
Heightened Def Con from 4.84555e-007 +to 4.84557e-007
Heightened Def Con from 4.84557e-007 ++to 4.84682e-007
Heightened Def Con from 4.84683e-007 to 4.84683e-007
Heightened Def Con from 4.84683e-007 +to 4.84933e-007
Heightened Def Con from 4.84964e-007 to 4.84964e-007
Heightened Def Con from 4.84964e-007 to 4.8509e-007
Heightened Def Con from 4.8509e-007 to 4.86105e-007
Heightened Def Con from 4.86107e-007 to 4.86357e-007
Heightened Def Con from 4.86362e-007 to 4.86393e-007
Heightened Def Con from 4.86405e-007 to 4.86655e-007
Heightened Def Con from 4.86996e-007 +++to 4.87996e-007
Heightened Def Con from 4.87998e-007 to 4.87998e-007
Heightened Def Con from 4.87998e-007 +++++to 4.88998e-007
Heightened Def Con from 4.8901e-007 +to 4.8915e-007
Heightened Def Con from 4.89154e-007 to 4.8917e-007
Heightened Def Con from 4.89201e-007 ++to 4.89326e-007
Heightened Def Con from 4.8933e-007 to 4.9033e-007
Heightened Def Con from 4.9033e-007 to 4.91346e-007
Heightened Def Con from 4.9135e-007 to 4.91476e-007
Heightened Def Con from 4.91476e-007 to 4.91508e-007
Heightened Def Con from 4.91508e-007 ++to 4.91523e-007
Heightened Def Con from 4.91523e-007 +to 4.92539e-007
Heightened Def Con from 4.92539e-007 to 4.9257e-007
Heightened Def Con from 4.92571e-007 +to 4.93587e-007
Heightened Def Con from 4.93587e-007 to 4.93712e-007
Heightened Def Con from 4.93712e-007 to 4.93714e-007
Heightened Def Con from 4.93714e-007 +++++to 4.93839e-007
Heightened Def Con from 4.9409e-007 to 4.9409e-007
Heightened Def Con from 4.9409e-007 to 4.94231e-007
Heightened Def Con from 4.94231e-007 to 4.95247e-007
Heightened Def Con from 4.9534e-007 to 4.95467e-007
Heightened Def Con from 4.95468e-007 +to 4.96593e-007
Heightened Def Con from 4.98593e-007 to 4.99593e-007
Heightened Def Con from 4.99593e-007 to 4.99843e-007
Heightened Def Con from 4.9985e-007 to 4.99975e-007
Heightened Def Con from 4.99975e-007 to 4.99979e-007
Heightened Def Con from 4.9998e-007 +to 4.99998e-007
Heightened Def Con from 4.99998e-007 +++to 5.00998e-007
Heightened Def Con from 5.01139e-007 +to 5.01157e-007
Heightened Def Con from 5.01168e-007 ++to 5.01183e-007
Heightened Def Con from 5.01183e-007 +to 5.02183e-007
Heightened Def Con from 5.02183e-007 to 5.02183e-007
Heightened Def Con from 5.02183e-007 to 5.0231e-007
Heightened Def Con from 5.0231e-007 to 5.03326e-007
Heightened Def Con from 5.03326e-007 +to 5.03451e-007
Heightened Def Con from 5.03451e-007 to 5.04467e-007
Heightened Def Con from 5.04498e-007 to 5.06498e-007
Heightened Def Con from 5.0725e-007 to 5.07281e-007
Heightened Def Con from 5.07285e-007 to 5.07287e-007
Heightened Def Con from 5.07287e-007 to 5.07287e-007
Heightened Def Con from 5.07288e-007 to 5.07415e-007
Heightened Def Con from 5.07418e-007 to 5.07419e-007
Heightened Def Con from 5.07419e-007 to 5.07423e-007
Heightened Def Con from 5.07424e-007 to 5.07424e-007
Heightened Def Con from 5.07424e-007 +++to 5.08424e-007
Heightened Def Con from 5.09174e-007 to 5.11174e-007
Heightened Def Con from 5.11174e-007 to 5.11174e-007
Heightened Def Con from 5.11174e-007 +to 5.12301e-007
Heightened Def Con from 5.12332e-007 to 5.13334e-007
Heightened Def Con from 5.13334e-007 to 5.13459e-007
Heightened Def Con from 5.13459e-007 to 5.13475e-007
Heightened Def Con from 5.13475e-007 +to 5.14475e-007
Heightened Def Con from 5.14475e-007 to 5.146e-007
Heightened Def Con from 5.14604e-007 to 5.15619e-007
Heightened Def Con from 5.15624e-007 to 5.1564e-007
Heightened Def Con from 5.1564e-007 to 5.15671e-007
Heightened Def Con from 5.15672e-007 to 5.15799e-007
Heightened Def Con from 5.15799e-007 to 5.16049e-007
Heightened Def Con from 5.18788e-007 to 5.20788e-007
Heightened Def Con from 5.2782e-007 to 5.2782e-007
Heightened Def Con from 5.2782e-007 to 5.2807e-007
Heightened Def Con from 5.2807e-007 to 5.28087e-007
Heightened Def Con from 5.28088e-007 to 5.28228e-007
Heightened Def Con from 5.2826e-007 to 5.29275e-007
Heightened Def Con from 5.29275e-007 to 5.304e-007
Heightened Def Con from 5.3044e-007 to 5.3069e-007
Heightened Def Con from 5.30941e-007 to 5.31081e-007
Heightened Def Con from 5.31086e-007 to 5.31104e-007
Heightened Def Con from 5.31104e-007 to 5.31104e-007
Heightened Def Con from 5.31105e-007 +to 5.3112e-007
Heightened Def Con from 5.3112e-007 +to 5.32247e-007
Heightened Def Con from 5.32497e-007 to 5.32622e-007
Heightened Def Con from 5.32873e-007 to 5.32875e-007
Heightened Def Con from 5.32875e-007 to 5.34875e-007
Heightened Def Con from 5.34875e-007 to 5.34893e-007
Heightened Def Con from 5.34918e-007 to 5.36918e-007
Heightened Def Con from 5.52918e-007 +to 5.53168e-007
Heightened Def Con from 5.53168e-007 to 5.5317e-007
Heightened Def Con from 5.53171e-007 +to 5.53298e-007
Heightened Def Con from 5.53298e-007 to 5.53329e-007
Heightened Def Con from 5.53329e-007 to 5.53344e-007
Heightened Def Con from 5.53345e-007 ++to 5.54345e-007
Heightened Def Con from 5.54345e-007 to 5.54361e-007
Heightened Def Con from 5.54361e-007 ++to 5.54377e-007
Heightened Def Con from 5.54377e-007 to 5.54408e-007
Heightened Def Con from 5.54408e-007 to 5.55408e-007
Heightened Def Con from 5.55527e-007 to 5.55527e-007
Heightened Def Con from 5.55528e-007 to 5.55528e-007
Heightened Def Con from 5.55528e-007 ++to 5.57528e-007
Heightened Def Con from 5.57528e-007 to 5.57543e-007
Heightened Def Con from 5.57543e-007 +to 5.58543e-007
Heightened Def Con from 5.58543e-007 to 5.58559e-007
Heightened Def Con from 5.58559e-007 to 5.58684e-007
Heightened Def Con from 5.58684e-007 to 5.58684e-007
Heightened Def Con from 5.58684e-007 to 5.58825e-007
Heightened Def Con from 5.58829e-007 to 5.58831e-007
Heightened Def Con from 5.58831e-007 to 5.58831e-007
Heightened Def Con from 5.58831e-007 to 5.58831e-007
Heightened Def Con from 5.58831e-007 to 5.58956e-007
Heightened Def Con from 5.58956e-007 to 5.60956e-007
Heightened Def Con from 5.60956e-007 to 5.60958e-007
Heightened Def Con from 5.60958e-007 ++to 5.61958e-007
Heightened Def Con from 5.61958e-007 to 5.62085e-007
Heightened Def Con from 5.62085e-007 to 5.63085e-007
Heightened Def Con from 5.63085e-007 +to 5.65085e-007
Heightened Def Con from 5.71214e-007 +to 5.71218e-007
Heightened Def Con from 5.71218e-007 ++to 5.71234e-007
Heightened Def Con from 5.71273e-007 to 5.71275e-007
Heightened Def Con from 5.71275e-007 ++to 5.7129e-007
Heightened Def Con from 5.7129e-007 to 5.71306e-007
Heightened Def Con from 5.7131e-007 to 5.72435e-007
Heightened Def Con from 5.72435e-007 to 5.72435e-007
Heightened Def Con from 5.72435e-007 to 5.72437e-007
Heightened Def Con from 5.7244e-007 +to 5.72581e-007
Heightened Def Con from 5.72795e-007 +++++to 5.73795e-007
Heightened Def Con from 5.75795e-007 +to 5.77811e-007
Heightened Def Con from 5.77811e-007 to 5.77827e-007
Heightened Def Con from 5.77827e-007 ++to 5.78827e-007
Heightened Def Con from 5.80827e-007 to 5.81827e-007
Heightened Def Con from 5.81827e-007 ++to 5.81842e-007
Heightened Def Con from 5.81842e-007 ++++to 5.82842e-007
Heightened Def Con from 5.82842e-007 ++++++to 5.83842e-007
Heightened Def Con from 5.84092e-007 to 5.85092e-007
Heightened Def Con from 5.85092e-007 to 5.87092e-007
Heightened Def Con from 5.87154e-007 ++++to 5.87279e-007
Heightened Def Con from 5.87716e-007 to 5.87716e-007
Heightened Def Con from 5.87716e-007 to 5.87716e-007
Heightened Def Con from 5.87716e-007 to 5.88841e-007
Heightened Def Con from 5.88842e-007 to 5.88842e-007
Heightened Def Con from 5.88842e-007 to 5.88842e-007
Heightened Def Con from 5.88842e-007 to 5.88857e-007
Heightened Def Con from 5.88857e-007 ++++to 5.89857e-007
Heightened Def Con from 5.89857e-007 to 5.90857e-007
Heightened Def Con from 5.90857e-007 to 5.90857e-007
Heightened Def Con from 5.90857e-007 +to 5.90998e-007
Heightened Def Con from 5.91092e-007 to 5.91096e-007
Heightened Def Con from 5.91096e-007 to 5.91096e-007
Heightened Def Con from 5.91096e-007 to 5.91096e-007
Heightened Def Con from 5.91096e-007 +to 5.91346e-007
Heightened Def Con from 5.91346e-007 +to 5.92346e-007
Heightened Def Con from 5.92596e-007 to 5.93598e-007
Heightened Def Con from 5.93598e-007 to 5.93598e-007
Heightened Def Con from 5.93598e-007 to 5.94614e-007
Heightened Def Con from 5.94614e-007 +to 5.95616e-007
Heightened Def Con from 5.95621e-007 to 5.96746e-007
Heightened Def Con from 5.96746e-007 to 5.96746e-007
Heightened Def Con from 5.96746e-007 to 5.97746e-007
Heightened Def Con from 5.97746e-007 to 5.98762e-007
Heightened Def Con from 5.98762e-007 to 5.98777e-007
Heightened Def Con from 5.98777e-007 to 5.98778e-007
Heightened Def Con from 5.98778e-007 +to 5.99778e-007
Heightened Def Con from 5.99778e-007 to 6.01778e-007
Heightened Def Con from 6.0778e-007 to 6.07905e-007
Heightened Def Con from 6.07905e-007 to 6.07936e-007
Heightened Def Con from 6.07936e-007 to 6.07936e-007
Heightened Def Con from 6.07936e-007 to 6.07936e-007
Heightened Def Con from 6.07936e-007 +++to 6.08954e-007
Heightened Def Con from 6.08955e-007 ++++++to 6.0897e-007
Heightened Def Con from 6.08972e-007 to 6.09972e-007
Heightened Def Con from 6.09972e-007 ++to 6.09988e-007
Heightened Def Con from 6.09988e-007 to 6.10113e-007
Heightened Def Con from 6.10113e-007 ++++to 6.11113e-007
Heightened Def Con from 6.17113e-007 to 6.17115e-007
Heightened Def Con from 6.17115e-007 to 6.17365e-007
Heightened Def Con from 6.17365e-007 +++++to 6.18365e-007
Heightened Def Con from 6.20365e-007 to 6.21365e-007
Heightened Def Con from 6.21397e-007 ++++to 6.22397e-007
Heightened Def Con from 6.24397e-007 ++to 6.24412e-007
Heightened Def Con from 6.24443e-007 to 6.25444e-007
Heightened Def Con from 6.25444e-007 to 6.2546e-007
Heightened Def Con from 6.2546e-007 ++++to 6.2646e-007
Heightened Def Con from 6.26463e-007 to 6.26464e-007
Heightened Def Con from 6.26464e-007 ++to 6.2648e-007
Heightened Def Con from 6.2648e-007 to 6.26605e-007
Heightened Def Con from 6.26605e-007 ++++++++to 6.26607e-007
Heightened Def Con from 6.26607e-007 +++++++++to 6.26609e-007
Heightened Def Con from 6.26609e-007 ++to 6.26734e-007
Heightened Def Con from 6.28734e-007 to 6.28736e-007
Heightened Def Con from 6.28736e-007 to 6.28737e-007
Heightened Def Con from 6.28737e-007 to 6.28864e-007
Heightened Def Con from 6.28864e-007 to 6.28879e-007
Heightened Def Con from 6.28908e-007 to 6.28926e-007
Heightened Def Con from 6.28926e-007 to 6.28926e-007
Heightened Def Con from 6.28926e-007 to 6.28927e-007
Heightened Def Con from 6.28927e-007 to 6.28927e-007
Heightened Def Con from 6.28927e-007 ++to 6.28942e-007
Heightened Def Con from 6.28942e-007 to 6.28944e-007
Heightened Def Con from 6.28944e-007 to 6.29071e-007
Heightened Def Con from 6.29071e-007 to 6.29073e-007
Heightened Def Con from 6.29073e-007 to 6.31073e-007
Heightened Def Con from 6.31405e-007 to 6.31405e-007
Heightened Def Con from 6.31405e-007 to 6.31421e-007
Heightened Def Con from 6.31421e-007 ++to 6.31546e-007
Heightened Def Con from 6.31546e-007 to 6.31546e-007
Heightened Def Con from 6.31546e-007 +to 6.31671e-007
Heightened Def Con from 6.31671e-007 to 6.31687e-007
Heightened Def Con from 6.31687e-007 +to 6.31687e-007
Heightened Def Con from 6.31687e-007 to 6.31702e-007
Heightened Def Con from 6.31702e-007 ++to 6.31827e-007
Heightened Def Con from 6.31827e-007 to 6.32843e-007
Heightened Def Con from 6.32843e-007 to 6.32843e-007
Heightened Def Con from 6.32843e-007 +to 6.33843e-007
Heightened Def Con from 6.33843e-007 to 6.34843e-007
Heightened Def Con from 6.35093e-007 to 6.37093e-007
Heightened Def Con from 6.37097e-007 +++++to 6.38097e-007
Heightened Def Con from 6.40105e-007 to 6.40105e-007
Heightened Def Con from 6.40105e-007 to 6.40232e-007
Heightened Def Con from 6.40232e-007 to 6.40232e-007
Heightened Def Con from 6.40232e-007 to 6.42232e-007
Heightened Def Con from 6.42263e-007 to 6.42263e-007
Heightened Def Con from 6.42263e-007 to 6.43388e-007
Heightened Def Con from 6.43388e-007 to 6.43388e-007
Heightened Def Con from 6.43388e-007 to 6.43404e-007
Heightened Def Con from 6.43404e-007 to 6.43404e-007
Heightened Def Con from 6.43404e-007 to 6.4342e-007
Heightened Def Con from 6.4342e-007 to 6.44435e-007
Heightened Def Con from 6.44435e-007 to 6.4456e-007
Heightened Def Con from 6.44811e-007 to 6.45826e-007
Heightened Def Con from 6.45826e-007 to 6.45826e-007
Heightened Def Con from 6.45826e-007 to 6.45842e-007
Heightened Def Con from 6.45842e-007 to 6.45873e-007
Heightened Def Con from 6.45875e-007 to 6.46875e-007
Heightened Def Con from 6.46875e-007 to 6.47125e-007
Heightened Def Con from 6.47125e-007 to 6.47127e-007
Heightened Def Con from 6.47127e-007 ++to 6.47143e-007
Heightened Def Con from 6.47147e-007 to 6.48147e-007
Heightened Def Con from 6.48541e-007 to 6.48545e-007
Heightened Def Con from 6.48549e-007 to 6.49549e-007
Heightened Def Con from 6.49549e-007 to 6.51549e-007
Heightened Def Con from 6.58799e-007 to 6.58799e-007
Heightened Def Con from 6.58801e-007 to 6.58801e-007
Heightened Def Con from 6.58801e-007 to 6.58801e-007
Heightened Def Con from 6.58801e-007 +to 6.58803e-007
Heightened Def Con from 6.58804e-007 +to 6.58944e-007
Heightened Def Con from 6.58944e-007 +++to 6.59944e-007
Heightened Def Con from 6.61944e-007 to 6.61945e-007
Heightened Def Con from 6.61945e-007 to 6.62946e-007
Heightened Def Con from 6.62946e-007 to 6.62962e-007
Heightened Def Con from 6.62962e-007 +to 6.64087e-007
Heightened Def Con from 6.64088e-007 to 6.6409e-007
Heightened Def Con from 6.6409e-007 to 6.6409e-007
Heightened Def Con from 6.6409e-007 to 6.64121e-007
Heightened Def Con from 6.64121e-007 +to 6.66121e-007
Heightened Def Con from 6.66371e-007 to 6.66512e-007
Heightened Def Con from 6.66512e-007 to 6.66543e-007
Heightened Def Con from 6.66543e-007 to 6.67668e-007
Heightened Def Con from 6.67673e-007 to 6.68674e-007
Heightened Def Con from 6.68674e-007 to 6.68674e-007
Heightened Def Con from 6.68674e-007 +to 6.68924e-007
Heightened Def Con from 6.68924e-007 to 6.68924e-007
Heightened Def Con from 6.68924e-007 to 6.68926e-007
Heightened Def Con from 6.68926e-007 to 6.68926e-007
Heightened Def Con from 6.68926e-007 to 6.68926e-007
Heightened Def Con from 6.68926e-007 to 6.68926e-007
Heightened Def Con from 6.68926e-007 to 6.68942e-007
Heightened Def Con from 6.68942e-007 to 6.68942e-007
Heightened Def Con from 6.68942e-007 to 6.69067e-007
Heightened Def Con from 6.69067e-007 to 6.69067e-007
Heightened Def Con from 6.69067e-007 +to 6.69193e-007
Heightened Def Con from 6.69193e-007 to 6.69443e-007
Heightened Def Con from 6.69474e-007 to 6.69599e-007
Heightened Def Con from 6.696e-007 to 6.696e-007
Heightened Def Con from 6.696e-007 to 6.69615e-007
Heightened Def Con from 6.69615e-007 to 6.71615e-007
Heightened Def Con from 6.71873e-007 to 6.71998e-007
Heightened Def Con from 6.72748e-007 to 6.72748e-007
Heightened Def Con from 6.72748e-007 to 6.72779e-007
Heightened Def Con from 6.72875e-007 to 6.72875e-007
Heightened Def Con from 6.72875e-007 to 6.73891e-007
Heightened Def Con from 6.73895e-007 to 6.73897e-007
Heightened Def Con from 6.73898e-007 to 6.739e-007
Heightened Def Con from 6.739e-007 to 6.73915e-007
Heightened Def Con from 6.73916e-007 to 6.73916e-007
Heightened Def Con from 6.73916e-007 to 6.75041e-007
Heightened Def Con from 6.75043e-007 ++++to 6.76043e-007
Heightened Def Con from 6.76043e-007 to 6.76058e-007
Heightened Def Con from 6.76062e-007 +to 6.76187e-007
Heightened Def Con from 6.76215e-007 to 6.76215e-007
Heightened Def Con from 6.76215e-007 to 6.76217e-007
Heightened Def Con from 6.76217e-007 to 6.76217e-007
Heightened Def Con from 6.76217e-007 to 6.76248e-007
Heightened Def Con from 6.76248e-007 to 6.77373e-007
Heightened Def Con from 6.77373e-007 to 6.77498e-007
Heightened Def Con from 6.77499e-007 to 6.77499e-007
Heightened Def Con from 6.77499e-007 to 6.79499e-007
Heightened Def Con from 6.7951e-007 to 6.79635e-007
Heightened Def Con from 6.79635e-007 to 6.80635e-007
Heightened Def Con from 6.80635e-007 to 6.81637e-007
Heightened Def Con from 6.81638e-007 to 6.83638e-007
Heightened Def Con from 6.83638e-007 to 6.83638e-007
Heightened Def Con from 6.83638e-007 to 6.8364e-007
Heightened Def Con from 6.8364e-007 to 6.83781e-007
Heightened Def Con from 6.83812e-007 to 6.83814e-007
Heightened Def Con from 6.83814e-007 to 6.83816e-007
Heightened Def Con from 6.83816e-007 ++to 6.84816e-007
Heightened Def Con from 6.87317e-007 to 6.87317e-007
Heightened Def Con from 6.87317e-007 to 6.87457e-007
Heightened Def Con from 6.87512e-007 to 6.88514e-007
Heightened Def Con from 6.88514e-007 to 6.88514e-007
Heightened Def Con from 6.88514e-007 to 6.88514e-007
Heightened Def Con from 6.88514e-007 to 6.8853e-007
Heightened Def Con from 6.8853e-007 to 6.8878e-007
Heightened Def Con from 6.8903e-007 ++++to 6.89045e-007
Heightened Def Con from 6.89047e-007 to 6.89172e-007
Heightened Def Con from 6.89172e-007 +to 6.89188e-007
Heightened Def Con from 6.89188e-007 to 6.89313e-007
Heightened Def Con from 6.89313e-007 to 6.89315e-007
Heightened Def Con from 6.89315e-007 +to 6.89333e-007
Heightened Def Con from 6.89333e-007 to 6.89333e-007
Heightened Def Con from 6.89333e-007 to 6.8946e-007
Heightened Def Con from 6.89471e-007 to 6.90472e-007
Heightened Def Con from 6.90472e-007 to 6.91487e-007
Heightened Def Con from 6.91712e-007 to 6.91712e-007
Heightened Def Con from 6.91712e-007 to 6.91839e-007
Heightened Def Con from 6.91839e-007 to 6.9187e-007
Heightened Def Con from 6.91902e-007 to 6.91902e-007
Heightened Def Con from 6.91903e-007 to 6.92905e-007
Heightened Def Con from 6.92918e-007 to 6.93043e-007
Heightened Def Con from 6.93043e-007 to 6.95043e-007
Heightened Def Con from 6.95043e-007 to 6.95168e-007
Heightened Def Con from 6.95168e-007 +to 6.96295e-007
Heightened Def Con from 6.96295e-007 to 6.96299e-007
Heightened Def Con from 6.96303e-007 to 6.97305e-007
Heightened Def Con from 6.97306e-007 to 6.97306e-007
Heightened Def Con from 6.97306e-007 to 6.97556e-007
Heightened Def Con from 6.9756e-007 to 6.9756e-007
Heightened Def Con from 6.9756e-007 to 6.9756e-007
Heightened Def Con from 6.9756e-007 to 6.9956e-007
Heightened Def Con from 7.02189e-007 to 7.02189e-007
Heightened Def Con from 7.02189e-007 to 7.02191e-007
Heightened Def Con from 7.02191e-007 to 7.02191e-007
Heightened Def Con from 7.02191e-007 +to 7.02318e-007
Heightened Def Con from 7.0232e-007 ++to 7.02445e-007
Heightened Def Con from 7.02695e-007 to 7.0271e-007
Heightened Def Con from 7.0271e-007 +to 7.0371e-007
Heightened Def Con from 7.03711e-007 to 7.03726e-007
Heightened Def Con from 7.03726e-007 +++to 7.03851e-007
Heightened Def Con from 7.03851e-007 to 7.03867e-007
Heightened Def Con from 7.03867e-007 to 7.04883e-007
Heightened Def Con from 7.04886e-007 ++to 7.05886e-007
Heightened Def Con from 7.0589e-007 to 7.05892e-007
Heightened Def Con from 7.05892e-007 to 7.06892e-007
Heightened Def Con from 7.06892e-007 to 7.06923e-007
Heightened Def Con from 7.06924e-007 to 7.06924e-007
Heightened Def Con from 7.06924e-007 to 7.06924e-007
Heightened Def Con from 7.06924e-007 to 7.0794e-007
Heightened Def Con from 7.08037e-007 to 7.08162e-007
Heightened Def Con from 7.08164e-007 +to 7.09164e-007
Heightened Def Con from 7.09164e-007 to 7.10165e-007
Heightened Def Con from 7.10165e-007 +++to 7.11165e-007
Heightened Def Con from 7.12916e-007 to 7.14041e-007
Heightened Def Con from 7.14041e-007 to 7.14041e-007
Heightened Def Con from 7.14041e-007 to 7.14182e-007
Heightened Def Con from 7.14213e-007 ++++++to 7.14338e-007
Heightened Def Con from 7.14338e-007 +to 7.15463e-007
Heightened Def Con from 7.15494e-007 to 7.1551e-007
Heightened Def Con from 7.15514e-007 to 7.16514e-007
Heightened Def Con from 7.16514e-007 ++to 7.16529e-007
Heightened Def Con from 7.16529e-007 to 7.1653e-007
Heightened Def Con from 7.1653e-007 to 7.1853e-007
Heightened Def Con from 7.18569e-007 to 7.19694e-007
Heightened Def Con from 7.19698e-007 to 7.19702e-007
Heightened Def Con from 7.19702e-007 to 7.21702e-007
Heightened Def Con from 7.23889e-007 to 7.23891e-007
Heightened Def Con from 7.23891e-007 to 7.25016e-007
Heightened Def Con from 7.25016e-007 to 7.26016e-007
Heightened Def Con from 7.26016e-007 +++to 7.26141e-007
Heightened Def Con from 7.26141e-007 to 7.26157e-007
Heightened Def Con from 7.26157e-007 to 7.26157e-007
Heightened Def Con from 7.26157e-007 to 7.26157e-007
Heightened Def Con from 7.26157e-007 to 7.27157e-007
Heightened Def Con from 7.27157e-007 to 7.27175e-007
Heightened Def Con from 7.27175e-007 to 7.27206e-007
Heightened Def Con from 7.27237e-007 ++to 7.27362e-007
Heightened Def Con from 7.27362e-007 to 7.27364e-007
Heightened Def Con from 7.27365e-007 +to 7.27396e-007
Heightened Def Con from 7.27396e-007 ++to 7.27521e-007
Heightened Def Con from 7.27522e-007 to 7.27662e-007
Heightened Def Con from 7.27674e-007 to 7.27799e-007
Heightened Def Con from 7.27799e-007 to 7.27799e-007
Heightened Def Con from 7.27799e-007 to 7.27801e-007
Heightened Def Con from 7.27801e-007 +to 7.28817e-007
Heightened Def Con from 7.28849e-007 to 7.28865e-007
Heightened Def Con from 7.28865e-007 to 7.2899e-007
Heightened Def Con from 7.2899e-007 to 7.29115e-007
Heightened Def Con from 7.29115e-007 to 7.30117e-007
Heightened Def Con from 7.30117e-007 to 7.30134e-007
Heightened Def Con from 7.30135e-007 to 7.30276e-007
Heightened Def Con from 7.30276e-007 to 7.30278e-007
Heightened Def Con from 7.30278e-007 to 7.30309e-007
Heightened Def Con from 7.30309e-007 to 7.30311e-007
Heightened Def Con from 7.30311e-007 to 7.32311e-007
Heightened Def Con from 7.32312e-007 to 7.33327e-007
Heightened Def Con from 7.33328e-007 to 7.33359e-007
Heightened Def Con from 7.33391e-007 to 7.34516e-007
Heightened Def Con from 7.34521e-007 to 7.34771e-007
Heightened Def Con from 7.36021e-007 to 7.37146e-007
Heightened Def Con from 7.37396e-007 to 7.37412e-007
Heightened Def Con from 7.37412e-007 to 7.37412e-007
Heightened Def Con from 7.37412e-007 to 7.38412e-007
Heightened Def Con from 7.38412e-007 to 7.38414e-007
Heightened Def Con from 7.38414e-007 to 7.39416e-007
Heightened Def Con from 7.39416e-007 to 7.39417e-007
Heightened Def Con from 7.39419e-007 to 7.41419e-007
Heightened Def Con from 7.43485e-007 to 7.43487e-007
Heightened Def Con from 7.43487e-007 to 7.44502e-007
Heightened Def Con from 7.44506e-007 +to 7.45633e-007
Heightened Def Con from 7.46071e-007 to 7.46089e-007
Heightened Def Con from 7.46089e-007 to 7.47089e-007
Heightened Def Con from 7.47089e-007 to 7.47091e-007
Heightened Def Con from 7.47091e-007 to 7.47218e-007
Heightened Def Con from 7.47239e-007 to 7.48364e-007
Heightened Def Con from 7.49115e-007 to 7.5024e-007
Heightened Def Con from 7.50458e-007 to 7.51459e-007
Heightened Def Con from 7.5146e-007 to 7.5246e-007
Heightened Def Con from 7.5246e-007 to 7.52463e-007
Heightened Def Con from 7.52463e-007 to 7.52603e-007
Heightened Def Con from 7.52605e-007 +to 7.54605e-007
Heightened Def Con from 7.54855e-007 to 7.55105e-007
Heightened Def Con from 7.55355e-007 to 7.55371e-007
Heightened Def Con from 7.55371e-007 to 7.56496e-007
Heightened Def Con from 7.565e-007 to 7.585e-007
Heightened Def Con from 7.585e-007 to 7.605e-007
Heightened Def Con from 7.60501e-007 to 7.60501e-007
Heightened Def Con from 7.60501e-007 to 7.62501e-007
Heightened Def Con from 7.68735e-007 to 7.6886e-007
Heightened Def Con from 7.6886e-007 to 7.68876e-007
Heightened Def Con from 7.68876e-007 to 7.70876e-007
Heightened Def Con from 7.70877e-007 +to 7.71017e-007
Heightened Def Con from 7.71112e-007 to 7.71114e-007
Heightened Def Con from 7.71114e-007 to 7.7113e-007
Heightened Def Con from 7.7113e-007 +to 7.72146e-007
Heightened Def Con from 7.72146e-007 +to 7.73146e-007
Heightened Def Con from 7.75154e-007 to 7.76279e-007
Heightened Def Con from 7.76279e-007 to 7.76279e-007
Heightened Def Con from 7.76279e-007 to 7.78279e-007
Heightened Def Con from 7.78311e-007 to 7.78436e-007
Heightened Def Con from 7.78436e-007 to 7.7844e-007
Heightened Def Con from 7.78441e-007 +to 7.78566e-007
Heightened Def Con from 7.78566e-007 to 7.79691e-007
Heightened Def Con from 7.79722e-007 to 7.79722e-007
Heightened Def Con from 7.79722e-007 to 7.79722e-007
Heightened Def Con from 7.79722e-007 to 7.81722e-007
Heightened Def Con from 7.81722e-007 to 7.81847e-007
Heightened Def Con from 7.81851e-007 to 7.82867e-007
Heightened Def Con from 7.82867e-007 ++to 7.82883e-007
Heightened Def Con from 7.82977e-007 to 7.83102e-007
Heightened Def Con from 7.83102e-007 to 7.83102e-007
Heightened Def Con from 7.83102e-007 to 7.84104e-007
Heightened Def Con from 7.84105e-007 to 7.8412e-007
Heightened Def Con from 7.8412e-007 to 7.8412e-007
Heightened Def Con from 7.8412e-007 to 7.85121e-007
Heightened Def Con from 7.85121e-007 to 7.86246e-007
Heightened Def Con from 7.8625e-007 to 7.87266e-007
Heightened Def Con from 7.87274e-007 to 7.89274e-007
Heightened Def Con from 7.89534e-007 to 7.89538e-007
Heightened Def Con from 7.89538e-007 to 7.89539e-007
Heightened Def Con from 7.89543e-007 to 7.89545e-007
Heightened Def Con from 7.89545e-007 to 7.89795e-007
Heightened Def Con from 7.90045e-007 to 7.90295e-007
Heightened Def Con from 7.90328e-007 to 7.90468e-007
Heightened Def Con from 7.9047e-007 to 7.90474e-007
Heightened Def Con from 7.90479e-007 to 7.90481e-007
Heightened Def Con from 7.90483e-007 to 7.90483e-007
Heightened Def Con from 7.90483e-007 to 7.91608e-007
Heightened Def Con from 7.91609e-007 ++++to 7.92609e-007
Heightened Def Con from 7.96997e-007 to 7.97247e-007
Heightened Def Con from 7.97247e-007 +to 7.97265e-007
Heightened Def Con from 7.97265e-007 to 7.99265e-007
Heightened Def Con from 7.99926e-007 to 7.99927e-007
Heightened Def Con from 7.9993e-007 to 8.00071e-007
Heightened Def Con from 8.00071e-007 to 8.00196e-007
Heightened Def Con from 8.00227e-007 to 8.01229e-007
Heightened Def Con from 8.01234e-007 to 8.0125e-007
Heightened Def Con from 8.01252e-007 to 8.01377e-007
Heightened Def Con from 8.01377e-007 to 8.02502e-007
Heightened Def Con from 8.02535e-007 to 8.02785e-007
Heightened Def Con from 8.02785e-007 to 8.0391e-007
Heightened Def Con from 8.03911e-007 to 8.03927e-007
Heightened Def Con from 8.03927e-007 to 8.05052e-007
Heightened Def Con from 8.05303e-007 to 8.07303e-007
Heightened Def Con from 8.07307e-007 to 8.09307e-007
Heightened Def Con from 8.09311e-007 to 8.09451e-007
Heightened Def Con from 8.09491e-007 to 8.09522e-007
Heightened Def Con from 8.09672e-007 to 8.09673e-007
Heightened Def Con from 8.09673e-007 to 8.11673e-007
Heightened Def Con from 8.11673e-007 +++to 8.12673e-007
Heightened Def Con from 8.12673e-007 to 8.13673e-007
Heightened Def Con from 8.13673e-007 to 8.13704e-007
Heightened Def Con from 8.13705e-007 to 8.15705e-007
Heightened Def Con from 8.15955e-007 to 8.1708e-007
Heightened Def Con from 8.1708e-007 to 8.18096e-007
Heightened Def Con from 8.18096e-007 to 8.181e-007
Heightened Def Con from 8.181e-007 to 8.18241e-007
Heightened Def Con from 8.18241e-007 to 8.20241e-007
Heightened Def Con from 8.22242e-007 to 8.23242e-007
Heightened Def Con from 8.23242e-007 +to 8.25242e-007
Heightened Def Con from 8.2743e-007 to 8.2743e-007
Heightened Def Con from 8.2743e-007 to 8.2743e-007
Heightened Def Con from 8.2743e-007 to 8.27571e-007
Heightened Def Con from 8.27582e-007 to 8.27707e-007
Heightened Def Con from 8.27707e-007 to 8.27834e-007
Heightened Def Con from 8.27835e-007 to 8.2796e-007
Heightened Def Con from 8.2796e-007 to 8.27961e-007
Heightened Def Con from 8.27961e-007 +to 8.28961e-007
Heightened Def Con from 8.34961e-007 to 8.36961e-007
Heightened Def Con from 8.38961e-007 to 8.39086e-007
Heightened Def Con from 8.39339e-007 to 8.39355e-007
Heightened Def Con from 8.39417e-007 to 8.39419e-007
Heightened Def Con from 8.39419e-007 +++to 8.40419e-007
Heightened Def Con from 8.42419e-007 to 8.43419e-007
Heightened Def Con from 8.4345e-007 +++to 8.4445e-007
Heightened Def Con from 8.46952e-007 to 8.47968e-007
Heightened Def Con from 8.47968e-007 to 8.4797e-007
Heightened Def Con from 8.4797e-007 to 8.47972e-007
Heightened Def Con from 8.47973e-007 to 8.47973e-007
Heightened Def Con from 8.47973e-007 to 8.48973e-007
Heightened Def Con from 8.48973e-007 +to 8.49973e-007
Heightened Def Con from 8.4998e-007 to 8.4998e-007
Heightened Def Con from 8.4998e-007 to 8.49984e-007
Heightened Def Con from 8.49984e-007 to 8.50984e-007
Heightened Def Con from 8.50984e-007 to 8.51109e-007
Heightened Def Con from 8.51109e-007 +to 8.51141e-007
Heightened Def Con from 8.51145e-007 to 8.51147e-007
Heightened Def Con from 8.51147e-007 to 8.51272e-007
Heightened Def Con from 8.51272e-007 to 8.51413e-007
Heightened Def Con from 8.51413e-007 to 8.51429e-007
Heightened Def Con from 8.51429e-007 to 8.52445e-007
Heightened Def Con from 8.52445e-007 ++to 8.53445e-007
Heightened Def Con from 8.55445e-007 to 8.55447e-007
Heightened Def Con from 8.55447e-007 to 8.55449e-007
Heightened Def Con from 8.55449e-007 to 8.56465e-007
Heightened Def Con from 8.56465e-007 to 8.56467e-007
Heightened Def Con from 8.5647e-007 +to 8.56598e-007
Heightened Def Con from 8.56602e-007 to 8.56727e-007
Heightened Def Con from 8.58831e-007 to 8.59081e-007
Heightened Def Con from 8.59832e-007 to 8.61832e-007
Heightened Def Con from 8.61863e-007 +to 8.61867e-007
Heightened Def Con from 8.61872e-007 to 8.63872e-007
Heightened Def Con from 8.63876e-007 to 8.63892e-007
Heightened Def Con from 8.63892e-007 to 8.64894e-007
Heightened Def Con from 8.64894e-007 to 8.64912e-007
Heightened Def Con from 8.64916e-007 to 8.65041e-007
Heightened Def Con from 8.65041e-007 to 8.65043e-007
Heightened Def Con from 8.6505e-007 to 8.65052e-007
Heightened Def Con from 8.65052e-007 to 8.66052e-007
Heightened Def Con from 8.66052e-007 to 8.66068e-007
Heightened Def Con from 8.66068e-007 to 8.66085e-007
Heightened Def Con from 8.66085e-007 to 8.66087e-007
Heightened Def Con from 8.66087e-007 to 8.68087e-007
Heightened Def Con from 8.68088e-007 to 8.6809e-007
Heightened Def Con from 8.68097e-007 to 8.70097e-007
Heightened Def Con from 8.70097e-007 to 8.70099e-007
Heightened Def Con from 8.701e-007 to 8.711e-007
Heightened Def Con from 8.71101e-007 to 8.71228e-007
Heightened Def Con from 8.71234e-007 to 8.7125e-007
Heightened Def Con from 8.71285e-007 to 8.7241e-007
Heightened Def Con from 8.72504e-007 to 8.74504e-007
Heightened Def Con from 8.74504e-007 to 8.76504e-007
Heightened Def Con from 8.76546e-007 to 8.76564e-007
Heightened Def Con from 8.76572e-007 to 8.76574e-007
Heightened Def Con from 8.76575e-007 to 8.77575e-007
Heightened Def Con from 8.77575e-007 to 8.77606e-007
Heightened Def Con from 8.77638e-007 to 8.78638e-007
Heightened Def Con from 8.78638e-007 to 8.78655e-007
Heightened Def Con from 8.78667e-007 to 8.79667e-007
Heightened Def Con from 8.79667e-007 to 8.81667e-007
Heightened Def Con from 8.81702e-007 to 8.83702e-007
Heightened Def Con from 8.83702e-007 to 8.83952e-007
Heightened Def Con from 8.86368e-007 to 8.86386e-007
Heightened Def Con from 8.86386e-007 to 8.88386e-007
Heightened Def Con from 8.96136e-007 to 8.97136e-007
Heightened Def Con from 8.97136e-007 to 8.97138e-007
Heightened Def Con from 8.97142e-007 to 8.97142e-007
Heightened Def Con from 8.97142e-007 to 8.97146e-007
Heightened Def Con from 8.97146e-007 to 8.97396e-007
Heightened Def Con from 8.97398e-007 to 8.97523e-007
Heightened Def Con from 8.97523e-007 +to 8.99523e-007
Heightened Def Con from 8.99527e-007 to 9.00529e-007
Heightened Def Con from 9.00529e-007 to 9.00545e-007
Heightened Def Con from 9.00546e-007 to 9.00548e-007
Heightened Def Con from 9.00551e-007 to 9.00691e-007
Heightened Def Con from 9.00695e-007 to 9.00695e-007
Heightened Def Con from 9.00695e-007 to 9.00695e-007
Heightened Def Con from 9.00695e-007 to 9.02695e-007
Heightened Def Con from 9.02696e-007 to 9.02821e-007
Heightened Def Con from 9.02822e-007 to 9.04822e-007
Heightened Def Con from 9.06822e-007 to 9.06823e-007
Heightened Def Con from 9.06823e-007 to 9.06825e-007
Heightened Def Con from 9.06825e-007 +to 9.07827e-007
Heightened Def Con from 9.07827e-007 to 9.08842e-007
Heightened Def Con from 9.08844e-007 to 9.0886e-007
Heightened Def Con from 9.0886e-007 to 9.09985e-007
Heightened Def Con from 9.11616e-007 to 9.11741e-007
Heightened Def Con from 9.11741e-007 to 9.11772e-007
Heightened Def Con from 9.11991e-007 to 9.12241e-007
Heightened Def Con from 9.12245e-007 to 9.14245e-007
Heightened Def Con from 9.16905e-007 to 9.16905e-007
Heightened Def Con from 9.16905e-007 to 9.16936e-007
Heightened Def Con from 9.17406e-007 to 9.17531e-007
Heightened Def Con from 9.17531e-007 +to 9.18672e-007
Heightened Def Con from 9.18684e-007 to 9.18684e-007
Heightened Def Con from 9.18684e-007 ++to 9.19684e-007
Heightened Def Con from 9.19684e-007 to 9.19811e-007
Heightened Def Con from 9.19816e-007 to 9.19847e-007
Heightened Def Con from 9.19852e-007 to 9.19992e-007
Heightened Def Con from 9.20025e-007 to 9.20275e-007
Heightened Def Con from 9.20315e-007 to 9.22315e-007
Heightened Def Con from 9.36438e-007 to 9.37453e-007
Heightened Def Con from 9.37454e-007 +to 9.37594e-007
Heightened Def Con from 9.37598e-007 to 9.37848e-007
Heightened Def Con from 9.38067e-007 to 9.38192e-007
Heightened Def Con from 9.38192e-007 +to 9.3821e-007
Heightened Def Con from 9.3821e-007 to 9.3921e-007
Heightened Def Con from 9.3921e-007 to 9.39228e-007
Heightened Def Con from 9.39228e-007 to 9.39244e-007
Heightened Def Con from 9.39244e-007 to 9.39246e-007
Heightened Def Con from 9.39251e-007 to 9.39376e-007
Heightened Def Con from 9.39376e-007 to 9.39376e-007
Heightened Def Con from 9.39376e-007 to 9.39503e-007
Heightened Def Con from 9.39503e-007 to 9.39628e-007
Heightened Def Con from 9.39628e-007 to 9.39628e-007
Heightened Def Con from 9.39628e-007 +to 9.4063e-007
Heightened Def Con from 9.4063e-007 to 9.4063e-007
Heightened Def Con from 9.4063e-007 to 9.40631e-007
Heightened Def Con from 9.40631e-007 to 9.40633e-007
Heightened Def Con from 9.40637e-007 to 9.41652e-007
Heightened Def Con from 9.41657e-007 +to 9.41786e-007
Heightened Def Con from 9.4179e-007 +to 9.41821e-007
Heightened Def Con from 9.41825e-007 +to 9.42825e-007
Heightened Def Con from 9.43575e-007 to 9.43575e-007
Heightened Def Con from 9.43575e-007 to 9.43593e-007
Heightened Def Con from 9.43593e-007 to 9.43609e-007
Heightened Def Con from 9.4361e-007 to 9.4561e-007
Heightened Def Con from 9.4561e-007 +to 9.45625e-007
Heightened Def Con from 9.45625e-007 to 9.46626e-007
Heightened Def Con from 9.46626e-007 to 9.46643e-007
Heightened Def Con from 9.46657e-007 to 9.46657e-007
Heightened Def Con from 9.46657e-007 to 9.46661e-007
Heightened Def Con from 9.46665e-007 to 9.48665e-007
Heightened Def Con from 9.48703e-007 to 9.48719e-007
Heightened Def Con from 9.4875e-007 to 9.48752e-007
Heightened Def Con from 9.48752e-007 to 9.48784e-007
Heightened Def Con from 9.48784e-007 to 9.50784e-007
Heightened Def Con from 9.56784e-007 to 9.57786e-007
Heightened Def Con from 9.57786e-007 to 9.57926e-007
Heightened Def Con from 9.57959e-007 to 9.58099e-007
Heightened Def Con from 9.58099e-007 to 9.58224e-007
Heightened Def Con from 9.58224e-007 to 9.58365e-007
Heightened Def Con from 9.5837e-007 +to 9.58401e-007
Heightened Def Con from 9.58436e-007 to 9.58451e-007
Heightened Def Con from 9.58451e-007 to 9.59451e-007
Heightened Def Con from 9.59451e-007 to 9.59578e-007
Heightened Def Con from 9.59578e-007 to 9.59704e-007
Heightened Def Con from 9.59704e-007 to 9.59844e-007
Heightened Def Con from 9.59844e-007 to 9.59846e-007
Heightened Def Con from 9.59853e-007 to 9.60855e-007
Heightened Def Con from 9.60859e-007 to 9.61109e-007
Heightened Def Con from 9.61861e-007 to 9.61877e-007
Heightened Def Con from 9.61877e-007 to 9.62877e-007
Heightened Def Con from 9.62877e-007 to 9.62879e-007
Heightened Def Con from 9.6288e-007 to 9.6388e-007
Heightened Def Con from 9.6388e-007 to 9.63911e-007
Heightened Def Con from 9.63919e-007 to 9.65044e-007
Heightened Def Con from 9.65083e-007 to 9.65083e-007
Heightened Def Con from 9.65083e-007 to 9.65333e-007
Heightened Def Con from 9.66229e-007 to 9.66479e-007
Heightened Def Con from 9.67231e-007 to 9.67262e-007
Heightened Def Con from 9.67267e-007 to 9.69267e-007
Heightened Def Con from 9.85268e-007 to 9.85395e-007
Heightened Def Con from 9.85395e-007 to 9.85426e-007
Heightened Def Con from 9.85459e-007 to 9.87459e-007
Heightened Def Con from 9.89469e-007 to 9.89469e-007
Heightened Def Con from 9.89469e-007 to 9.89594e-007
Heightened Def Con from 9.89594e-007 to 9.91594e-007
Heightened Def Con from 9.9422e-007 to 9.9447e-007
Heightened Def Con from 9.9447e-007 to 9.95472e-007
Heightened Def Con from 9.95476e-007 to 9.95476e-007
Heightened Def Con from 9.95476e-007 to 9.97476e-007
Heightened Def Con from 9.97476e-007 to 9.97603e-007
Heightened Def Con from 9.97604e-007 to 9.97635e-007
Heightened Def Con from 9.97666e-007 to 9.99666e-007
Heightened Def Con from 9.99666e-007 to 9.99666e-007
Heightened Def Con from 9.99666e-007 to 9.99807e-007
Heightened Def Con from 9.9992e-007 to 1.00192e-006
Heightened Def Con from 1.00192e-006 to 1.00292e-006
Heightened Def Con from 1.00292e-006 to 1.00392e-006
Heightened Def Con from 1.00392e-006 to 1.00406e-006
Heightened Def Con from 1.00409e-006 to 1.00509e-006
Heightened Def Con from 1.00509e-006 to 1.00513e-006
[...]
Heightened Def Con from 1.12205e-006 to 1.12405e-006
Heightened Def Con from 1.12405e-006 to 1.12419e-006
Heightened Def Con from 1.12419e-006 to 1.1242e-006
Heightened Def Con from 1.12421e-006 to 1.12421e-006
Heightened Def Con from 1.12421e-006 to 1.12421e-006
Heightened Def Con from 1.12421e-006 to 1.12421e-006
Heightened Def Con from 1.12421e-006 to 1.12422e-006
Heightened Def Con from 1.12422e-006 ++to 1.12522e-006
Heightened Def Con from 1.12523e-006 to 1.12537e-006
Heightened Def Con from 1.12537e-006 to 1.1255e-006
Heightened Def Con from 1.12551e-006 to 1.12551e-006
Heightened Def Con from 1.12551e-006 ++to 1.12553e-006
Heightened Def Con from 1.12553e-006 to 1.12753e-006
Heightened Def Con from 1.13278e-006 to 1.13281e-006
Heightened Def Con from 1.13281e-006 to 1.13394e-006
Heightened Def Con from 1.13394e-006 to 1.13419e-006
Heightened Def Con from 1.13419e-006 to 1.13432e-006
Heightened Def Con from 1.13432e-006 to 1.13532e-006
Heightened Def Con from 1.13532e-006 to 1.13645e-006
Heightened Def Con from 1.1367e-006 to 1.1377e-006
Heightened Def Con from 1.1377e-006 to 1.1377e-006
Heightened Def Con from 1.1377e-006 +to 1.13772e-006
Heightened Def Con from 1.13772e-006 to 1.13872e-006
Heightened Def Con from 1.13872e-006 to 1.13872e-006
Heightened Def Con from 1.13872e-006 to 1.13984e-006
Heightened Def Con from 1.14161e-006 to 1.14273e-006
Heightened Def Con from 1.14273e-006 to 1.14373e-006
Heightened Def Con from 1.14377e-006 to 1.14379e-006
Heightened Def Con from 1.14379e-006 to 1.14392e-006
Heightened Def Con from 1.14392e-006 to 1.14394e-006
Heightened Def Con from 1.14394e-006 to 1.14594e-006
Heightened Def Con from 1.15294e-006 to 1.15295e-006
Heightened Def Con from 1.15295e-006 to 1.15296e-006
Heightened Def Con from 1.15296e-006 to 1.15296e-006
Heightened Def Con from 1.15296e-006 to 1.15298e-006
Heightened Def Con from 1.15301e-006 to 1.15301e-006
Heightened Def Con from 1.15301e-006 to 1.15326e-006
Heightened Def Con from 1.1533e-006 +to 1.15431e-006
Heightened Def Con from 1.15432e-006 to 1.15632e-006
Heightened Def Con from 1.15664e-006 to 1.15664e-006
Heightened Def Con from 1.15664e-006 to 1.15664e-006
Heightened Def Con from 1.15664e-006 to 1.15667e-006
Heightened Def Con from 1.15667e-006 to 1.15668e-006
Heightened Def Con from 1.15668e-006 +to 1.15668e-006
Heightened Def Con from 1.15668e-006 +to 1.15868e-006
Heightened Def Con from 1.17618e-006 to 1.17619e-006
Heightened Def Con from 1.17619e-006 to 1.17819e-006
Heightened Def Con from 1.1782e-006 to 1.17821e-006
Heightened Def Con from 1.17821e-006 to 1.17846e-006
Heightened Def Con from 1.17846e-006 to 1.17859e-006
Heightened Def Con from 1.17859e-006 to 1.17959e-006
Heightened Def Con from 1.17959e-006 ++to 1.18059e-006
Heightened Def Con from 1.1826e-006 +to 1.18262e-006
Heightened Def Con from 1.18262e-006 to 1.18362e-006
Heightened Def Con from 1.18363e-006 to 1.18463e-006
Heightened Def Con from 1.18463e-006 +to 1.18563e-006
Heightened Def Con from 1.18563e-006 to 1.18675e-006
Heightened Def Con from 1.18675e-006 to 1.1869e-006
Heightened Def Con from 1.1869e-006 to 1.1879e-006
Heightened Def Con from 1.1879e-006 to 1.1879e-006
Heightened Def Con from 1.1879e-006 to 1.1879e-006
Heightened Def Con from 1.1879e-006 to 1.18792e-006
Heightened Def Con from 1.18792e-006 to 1.18793e-006
Heightened Def Con from 1.18793e-006 to 1.18895e-006
Heightened Def Con from 1.18895e-006 to 1.18896e-006
Heightened Def Con from 1.18896e-006 to 1.18898e-006
Heightened Def Con from 1.18898e-006 to 1.18998e-006
Heightened Def Con from 1.18998e-006 to 1.19023e-006
Heightened Def Con from 1.19024e-006 to 1.19036e-006
Heightened Def Con from 1.19036e-006 to 1.19061e-006
Heightened Def Con from 1.19064e-006 to 1.19068e-006
Heightened Def Con from 1.19068e-006 to 1.19068e-006
Heightened Def Con from 1.1907e-006 to 1.19071e-006
Heightened Def Con from 1.19072e-006 to 1.19184e-006
Heightened Def Con from 1.19228e-006 to 1.1933e-006
Heightened Def Con from 1.1933e-006 to 1.19442e-006
Heightened Def Con from 1.19443e-006 to 1.19555e-006
Heightened Def Con from 1.19599e-006 to 1.196e-006
Heightened Def Con from 1.196e-006 to 1.19614e-006
Heightened Def Con from 1.19618e-006 to 1.19618e-006
Heightened Def Con from 1.19618e-006 to 1.19632e-006
Heightened Def Con from 1.19632e-006 to 1.19832e-006
Heightened Def Con from 1.20034e-006 to 1.20147e-006
Heightened Def Con from 1.20572e-006 to 1.20772e-006
Heightened Def Con from 1.20972e-006 to 1.20972e-006
Heightened Def Con from 1.20972e-006 to 1.20972e-006
Heightened Def Con from 1.20972e-006 to 1.20997e-006
Heightened Def Con from 1.20997e-006 to 1.21e-006
Heightened Def Con from 1.21022e-006 to 1.21124e-006
Heightened Def Con from 1.21125e-006 to 1.21225e-006
Heightened Def Con from 1.21226e-006 to 1.2124e-006
Heightened Def Con from 1.2124e-006 to 1.21352e-006
Heightened Def Con from 1.21432e-006 to 1.21457e-006
Heightened Def Con from 1.21457e-006 to 1.2146e-006
Heightened Def Con from 1.21461e-006 to 1.21561e-006
Heightened Def Con from 1.21561e-006 to 1.21562e-006
Heightened Def Con from 1.21562e-006 to 1.21762e-006
Heightened Def Con from 1.21766e-006 to 1.21867e-006
Heightened Def Con from 1.21867e-006 to 1.2187e-006
Heightened Def Con from 1.21882e-006 to 1.21894e-006
Heightened Def Con from 1.21974e-006 to 1.22074e-006
Heightened Def Con from 1.22074e-006 to 1.22076e-006
Heightened Def Con from 1.22076e-006 +to 1.2209e-006
Heightened Def Con from 1.22152e-006 to 1.22252e-006
Heightened Def Con from 1.22252e-006 to 1.22277e-006
Heightened Def Con from 1.22277e-006 to 1.22279e-006
Heightened Def Con from 1.22279e-006 to 1.22279e-006
Heightened Def Con from 1.22279e-006 to 1.22304e-006
Heightened Def Con from 1.22304e-006 to 1.22304e-006
Heightened Def Con from 1.22304e-006 to 1.22304e-006
Heightened Def Con from 1.22304e-006 to 1.22504e-006
Heightened Def Con from 1.25556e-006 to 1.25756e-006
Heightened Def Con from 1.2612e-006 to 1.26121e-006
Heightened Def Con from 1.26121e-006 to 1.26321e-006
Heightened Def Con from 1.26354e-006 to 1.26355e-006
Heightened Def Con from 1.26355e-006 to 1.26555e-006
Heightened Def Con from 1.26555e-006 to 1.26557e-006
Heightened Def Con from 1.26557e-006 to 1.26557e-006
Heightened Def Con from 1.26557e-006 to 1.26669e-006
Heightened Def Con from 1.26669e-006 to 1.26671e-006
Heightened Def Con from 1.26671e-006 to 1.26784e-006
Heightened Def Con from 1.26784e-006 to 1.26885e-006
Heightened Def Con from 1.26895e-006 to 1.26898e-006
Heightened Def Con from 1.26904e-006 to 1.26918e-006
Heightened Def Con from 1.26924e-006 to 1.26924e-006
Heightened Def Con from 1.2693e-006 to 1.2713e-006
Heightened Def Con from 1.2733e-006 to 1.2743e-006
Heightened Def Con from 1.2743e-006 to 1.27444e-006
Heightened Def Con from 1.2745e-006 to 1.27451e-006
Heightened Def Con from 1.27451e-006 to 1.27452e-006
Heightened Def Con from 1.27452e-006 to 1.27477e-006
Heightened Def Con from 1.2748e-006 +to 1.27582e-006
Heightened Def Con from 1.27593e-006 to 1.27594e-006
Heightened Def Con from 1.27594e-006 to 1.27609e-006
Heightened Def Con from 1.27613e-006 to 1.27725e-006
Heightened Def Con from 1.2775e-006 to 1.27752e-006
Heightened Def Con from 1.27752e-006 to 1.27755e-006
Heightened Def Con from 1.27755e-006 to 1.27758e-006
Heightened Def Con from 1.27812e-006 to 1.27826e-006
Heightened Def Con from 1.27828e-006 to 1.27831e-006
Heightened Def Con from 1.27833e-006 to 1.28033e-006
Heightened Def Con from 1.28033e-006 to 1.28133e-006
Heightened Def Con from 1.28133e-006 to 1.28235e-006
Heightened Def Con from 1.28235e-006 to 1.28435e-006
Heightened Def Con from 1.28635e-006 to 1.28635e-006
Heightened Def Con from 1.28635e-006 to 1.28649e-006
Heightened Def Con from 1.28649e-006 to 1.28651e-006
Heightened Def Con from 1.28654e-006 to 1.28854e-006
Heightened Def Con from 1.29454e-006 to 1.29466e-006
Heightened Def Con from 1.29542e-006 to 1.29543e-006
Heightened Def Con from 1.29544e-006 to 1.29569e-006
Heightened Def Con from 1.29569e-006 to 1.2957e-006
Heightened Def Con from 1.2957e-006 to 1.2967e-006
Heightened Def Con from 1.2967e-006 to 1.29682e-006
Heightened Def Con from 1.29682e-006 to 1.29784e-006
Heightened Def Con from 1.29788e-006 to 1.29889e-006
Heightened Def Con from 1.2989e-006 to 1.29904e-006
Heightened Def Con from 1.29905e-006 to 1.29908e-006
Heightened Def Con from 1.29909e-006 to 1.30022e-006
Heightened Def Con from 1.30026e-006 to 1.30126e-006
Heightened Def Con from 1.30126e-006 to 1.30139e-006
Heightened Def Con from 1.30139e-006 to 1.30239e-006
Heightened Def Con from 1.30239e-006 to 1.30243e-006
Heightened Def Con from 1.30243e-006 to 1.30355e-006
Heightened Def Con from 1.30452e-006 to 1.30477e-006
Heightened Def Con from 1.3048e-006 to 1.3058e-006
Heightened Def Con from 1.3058e-006 to 1.3078e-006
Heightened Def Con from 1.3218e-006 to 1.32195e-006
Heightened Def Con from 1.32195e-006 to 1.32195e-006
Heightened Def Con from 1.32195e-006 to 1.32395e-006
Heightened Def Con from 1.32395e-006 to 1.32408e-006
Heightened Def Con from 1.3401e-006 to 1.3401e-006
Heightened Def Con from 1.3401e-006 to 1.3401e-006
Heightened Def Con from 1.3401e-006 to 1.34035e-006
Heightened Def Con from 1.34035e-006 to 1.34037e-006
Heightened Def Con from 1.34037e-006 to 1.34037e-006
Heightened Def Con from 1.34037e-006 to 1.34237e-006
Heightened Def Con from 1.3445e-006 ++to 1.34462e-006
Heightened Def Con from 1.34466e-006 to 1.34469e-006
Heightened Def Con from 1.34472e-006 +to 1.34572e-006
Heightened Def Con from 1.34948e-006 to 1.3496e-006
Heightened Def Con from 1.3496e-006 to 1.3496e-006
Heightened Def Con from 1.3496e-006 to 1.34985e-006
Heightened Def Con from 1.3499e-006 to 1.35102e-006
Heightened Def Con from 1.35106e-006 to 1.35131e-006
Heightened Def Con from 1.35211e-006 +to 1.35226e-006
Heightened Def Con from 1.35229e-006 to 1.35229e-006
Heightened Def Con from 1.3523e-006 to 1.3523e-006
Heightened Def Con from 1.35233e-006 to 1.35246e-006
Heightened Def Con from 1.35246e-006 to 1.35247e-006
Heightened Def Con from 1.35247e-006 to 1.35447e-006
Heightened Def Con from 1.35449e-006 to 1.35463e-006
Heightened Def Con from 1.35486e-006 to 1.35486e-006
Heightened Def Con from 1.35486e-006 to 1.35489e-006
Heightened Def Con from 1.3549e-006 to 1.35515e-006
Heightened Def Con from 1.35515e-006 to 1.35616e-006
Heightened Def Con from 1.3568e-006 to 1.35781e-006
Heightened Def Con from 1.35781e-006 to 1.35893e-006
Heightened Def Con from 1.35893e-006 +to 1.35906e-006
Heightened Def Con from 1.35906e-006 to 1.36106e-006
Heightened Def Con from 1.3615e-006 to 1.3625e-006
Heightened Def Con from 1.3625e-006 to 1.36275e-006
Heightened Def Con from 1.36286e-006 to 1.36288e-006
Heightened Def Con from 1.3629e-006 to 1.36291e-006
Heightened Def Con from 1.36291e-006 to 1.36491e-006
Heightened Def Con from 1.36494e-006 to 1.36507e-006
Heightened Def Con from 1.36507e-006 to 1.36532e-006
Heightened Def Con from 1.36555e-006 to 1.36557e-006
Heightened Def Con from 1.36557e-006 to 1.36557e-006
Heightened Def Con from 1.36557e-006 to 1.3656e-006
Heightened Def Con from 1.36563e-006 to 1.36763e-006
Heightened Def Con from 1.42978e-006 to 1.42991e-006
Heightened Def Con from 1.42991e-006 to 1.43191e-006
Heightened Def Con from 1.43192e-006 to 1.43195e-006
Heightened Def Con from 1.43205e-006 to 1.43208e-006
Heightened Def Con from 1.43208e-006 to 1.43408e-006
Heightened Def Con from 1.43433e-006 to 1.43447e-006
Heightened Def Con from 1.43451e-006 to 1.43651e-006
Heightened Def Con from 1.43851e-006 to 1.43951e-006
Heightened Def Con from 1.43951e-006 to 1.43951e-006
Heightened Def Con from 1.43951e-006 to 1.43963e-006
Heightened Def Con from 1.43963e-006 to 1.43966e-006
Heightened Def Con from 1.43967e-006 to 1.4398e-006
Heightened Def Con from 1.4398e-006 to 1.4398e-006
Heightened Def Con from 1.4398e-006 to 1.44081e-006
Heightened Def Con from 1.44081e-006 to 1.44193e-006
Heightened Def Con from 1.44193e-006 to 1.44207e-006
Heightened Def Con from 1.44217e-006 to 1.44242e-006
Heightened Def Con from 1.44279e-006 to 1.44479e-006
Heightened Def Con from 1.44767e-006 to 1.44967e-006
Heightened Def Con from 1.45568e-006 to 1.45768e-006
Heightened Def Con from 1.45968e-006 to 1.45968e-006
Heightened Def Con from 1.45968e-006 to 1.45971e-006
Heightened Def Con from 1.45975e-006 to 1.45976e-006
Heightened Def Con from 1.45976e-006 to 1.46088e-006
Heightened Def Con from 1.46098e-006 to 1.4611e-006
Heightened Def Con from 1.46202e-006 to 1.46202e-006
Heightened Def Con from 1.46202e-006 to 1.46205e-006
Heightened Def Con from 1.46205e-006 to 1.46219e-006
Heightened Def Con from 1.46219e-006 to 1.46231e-006
Heightened Def Con from 1.46291e-006 to 1.46291e-006
Heightened Def Con from 1.46291e-006 to 1.46291e-006
Heightened Def Con from 1.46291e-006 to 1.46291e-006
Heightened Def Con from 1.46291e-006 to 1.46391e-006
Heightened Def Con from 1.46391e-006 to 1.46404e-006
Heightened Def Con from 1.46404e-006 to 1.46417e-006
Heightened Def Con from 1.46423e-006 to 1.46426e-006
Heightened Def Con from 1.46602e-006 to 1.46715e-006
Heightened Def Con from 1.46737e-006 +to 1.4675e-006
Heightened Def Con from 1.4675e-006 to 1.4685e-006
Heightened Def Con from 1.46851e-006 to 1.46851e-006
Heightened Def Con from 1.46851e-006 to 1.46952e-006
Heightened Def Con from 1.46954e-006 to 1.47054e-006
Heightened Def Con from 1.47054e-006 to 1.47156e-006
Heightened Def Con from 1.47159e-006 to 1.4716e-006
Heightened Def Con from 1.4716e-006 to 1.47174e-006
Heightened Def Con from 1.47174e-006 to 1.47186e-006
Heightened Def Con from 1.47186e-006 to 1.47286e-006
Heightened Def Con from 1.47505e-006 to 1.47519e-006
Heightened Def Con from 1.47524e-006 to 1.47724e-006
Heightened Def Con from 1.54011e-006 to 1.54113e-006
Heightened Def Con from 1.54117e-006 to 1.54317e-006
Heightened Def Con from 1.54517e-006 to 1.54617e-006
Heightened Def Con from 1.54619e-006 to 1.54819e-006
Heightened Def Con from 1.54856e-006 to 1.54969e-006
Heightened Def Con from 1.55003e-006 to 1.55028e-006
Heightened Def Con from 1.55115e-006 to 1.5514e-006
Heightened Def Con from 1.55288e-006 to 1.55313e-006
Heightened Def Con from 1.55352e-006 to 1.55377e-006
Heightened Def Con from 1.55378e-006 to 1.55479e-006
Heightened Def Con from 1.56054e-006 to 1.56166e-006
Heightened Def Con from 1.56197e-006 to 1.5631e-006
Heightened Def Con from 1.56335e-006 to 1.56337e-006
Heightened Def Con from 1.56337e-006 to 1.56351e-006
Heightened Def Con from 1.56352e-006 to 1.56464e-006
Heightened Def Con from 1.56716e-006 to 1.56729e-006
Heightened Def Con from 1.56729e-006 to 1.56929e-006
Heightened Def Con from 1.56932e-006 to 1.56935e-006
Heightened Def Con from 1.56955e-006 to 1.57155e-006
Heightened Def Con from 1.57736e-006 to 1.5775e-006
Heightened Def Con from 1.57753e-006 to 1.57767e-006
Heightened Def Con from 1.57935e-006 to 1.5796e-006
Heightened Def Con from 1.60874e-006 to 1.60874e-006
Heightened Def Con from 1.60874e-006 to 1.60877e-006
Heightened Def Con from 1.60877e-006 to 1.60877e-006
Heightened Def Con from 1.60877e-006 to 1.60877e-006
Heightened Def Con from 1.60877e-006 to 1.60977e-006
Heightened Def Con from 1.60977e-006 ++to 1.60979e-006
Heightened Def Con from 1.60983e-006 to 1.61183e-006
Heightened Def Con from 1.61183e-006 to 1.61383e-006
Heightened Def Con from 1.61384e-006 to 1.61386e-006
Heightened Def Con from 1.61388e-006 to 1.61402e-006
Heightened Def Con from 1.61412e-006 to 1.61612e-006
Heightened Def Con from 1.61704e-006 to 1.61904e-006
Heightened Def Con from 1.65304e-006 to 1.65329e-006
Heightened Def Con from 1.6552e-006 to 1.65533e-006
Heightened Def Con from 1.65533e-006 to 1.65533e-006
Heightened Def Con from 1.65533e-006 to 1.65646e-006
Heightened Def Con from 1.66196e-006 to 1.66396e-006
Heightened Def Con from 1.66473e-006 to 1.66574e-006
Heightened Def Con from 1.66577e-006 to 1.66602e-006
Heightened Def Con from 1.66603e-006 to 1.66618e-006
Heightened Def Con from 1.66618e-006 to 1.66718e-006
Heightened Def Con from 1.66719e-006 to 1.66744e-006
Heightened Def Con from 1.66922e-006 to 1.67022e-006
Heightened Def Con from 1.67022e-006 to 1.67025e-006
Heightened Def Con from 1.6703e-006 to 1.67031e-006
Heightened Def Con from 1.67031e-006 to 1.67143e-006
Heightened Def Con from 1.67188e-006 to 1.67388e-006
Heightened Def Con from 1.68036e-006 to 1.68149e-006
Heightened Def Con from 1.71856e-006 to 1.72056e-006
Heightened Def Con from 1.72056e-006 to 1.72058e-006
Heightened Def Con from 1.72069e-006 +to 1.72084e-006
Heightened Def Con from 1.72087e-006 to 1.72087e-006
Heightened Def Con from 1.72088e-006 to 1.722e-006
Heightened Def Con from 1.72204e-006 to 1.72306e-006
Heightened Def Con from 1.7231e-006 to 1.72311e-006
Heightened Def Con from 1.72311e-006 to 1.72424e-006
Heightened Def Con from 1.72428e-006 to 1.72442e-006
Heightened Def Con from 1.72493e-006 to 1.72496e-006
Heightened Def Con from 1.72499e-006 to 1.72513e-006
Heightened Def Con from 1.72513e-006 to 1.72713e-006
Heightened Def Con from 1.72734e-006 to 1.72759e-006
Heightened Def Con from 1.7276e-006 to 1.72761e-006
Heightened Def Con from 1.728e-006 to 1.729e-006
Heightened Def Con from 1.7456e-006 to 1.74561e-006
Heightened Def Con from 1.74579e-006 to 1.74593e-006
Heightened Def Con from 1.74602e-006 to 1.74616e-006
Heightened Def Con from 1.74622e-006 to 1.74822e-006
Heightened Def Con from 1.75076e-006 to 1.75188e-006
Heightened Def Con from 1.75188e-006 to 1.75388e-006
Heightened Def Con from 1.76381e-006 to 1.76385e-006
Heightened Def Con from 1.76385e-006 to 1.7641e-006
Heightened Def Con from 1.7641e-006 to 1.76424e-006
Heightened Def Con from 1.76475e-006 to 1.76489e-006
Heightened Def Con from 1.76489e-006 to 1.76591e-006
Heightened Def Con from 1.7662e-006 to 1.76621e-006
Heightened Def Con from 1.76622e-006 to 1.76734e-006
Heightened Def Con from 1.76738e-006 to 1.76938e-006
Heightened Def Con from 1.78243e-006 to 1.78243e-006
Heightened Def Con from 1.78244e-006 to 1.78444e-006
Heightened Def Con from 1.78444e-006 to 1.78546e-006
Heightened Def Con from 1.78549e-006 to 1.78749e-006
Heightened Def Con from 1.78825e-006 to 1.7885e-006
Heightened Def Con from 1.78882e-006 to 1.79082e-006
Heightened Def Con from 1.79283e-006 to 1.79483e-006
Heightened Def Con from 1.86509e-006 to 1.86523e-006
Heightened Def Con from 1.86523e-006 to 1.86723e-006
Heightened Def Con from 1.88411e-006 to 1.88411e-006
Heightened Def Con from 1.88411e-006 to 1.88436e-006
Heightened Def Con from 1.88511e-006 to 1.88524e-006
Heightened Def Con from 1.88527e-006 to 1.88727e-006
Heightened Def Con from 1.88828e-006 to 1.88832e-006
Heightened Def Con from 1.88865e-006 to 1.88977e-006
Heightened Def Con from 1.90016e-006 to 1.90118e-006
Heightened Def Con from 1.90129e-006 to 1.90132e-006
Heightened Def Con from 1.90173e-006 to 1.90198e-006
Heightened Def Con from 1.90198e-006 to 1.90398e-006
Heightened Def Con from 1.906e-006 to 1.908e-006
Heightened Def Con from 1.93952e-006 to 1.94152e-006
Heightened Def Con from 1.94768e-006 to 1.94968e-006
Heightened Def Con from 1.96223e-006 to 1.96423e-006
Heightened Def Con from 1.96467e-006 to 1.96667e-006
Heightened Def Con from 1.96692e-006 to 1.96706e-006
Heightened Def Con from 1.96706e-006 to 1.96709e-006
Heightened Def Con from 1.96751e-006 to 1.96776e-006
Heightened Def Con from 1.96801e-006 to 1.96913e-006
Heightened Def Con from 1.98662e-006 to 1.98862e-006
Heightened Def Con from 1.99763e-006 to 1.99963e-006
Heightened Def Con from 2.00585e-006 to 2.00697e-006
Heightened Def Con from 2.00697e-006 to 2.0081e-006
Heightened Def Con from 2.00832e-006 to 2.01032e-006

Date: Sat Oct 06 08:37:12 2018
Total elapsed time: 1.789 seconds.

tnom = 27
temp = 27
method = modified trap
totiter = 466505
traniter = 465746
tranpoints = 49694
accept = 14523
rejected = 38203
matrix size = 14
fillins = 6
solver = Normal
Matrix Compiler1: 1.07 KB object code size  0.4/0.3/[0.1]
Matrix Compiler2: off  [0.3]/0.4/0.6

